** O carregamento S_FASEI_REV foi somada uma constante devido ao efeito Poisson 
** 
** no revestimento de 23080888.4816 Pa.
** 
*Heading
** Job name: Analise-4 Model name: Analise-4
** Generated by: Abaqus/CAE 2020
*Preprint, echo=NO, model=NO, history=NO, contact=NO
**
** PARTS
**
*Part, name=Analise-4
*End Part
**  
**
** ASSEMBLY
**
*Assembly, name=Assembly
**  
*Instance, name=HydraPartInstance, part=Analise-4
*Node
      1,  0.658811986,       -3700.
      2,  0.658811986,       -4000.
      3,          15.,       -4000.
      4,          15.,       -3700.
      5,  0.131762505,       -3700.
      6,  0.131762505,       -4000.
      7,  0.125412494,       -4000.
      8,  0.125412494,       -3700.
      9,  0.108445302,       -3700.
     10,  0.108445302,       -4000.
     11,  0.658811986,     -3700.75
     12,  0.658811986,      -3701.5
     13,  0.658811986,     -3702.25
     14,  0.658811986,       -3703.
     15,  0.658811986,     -3703.75
     16,  0.658811986,      -3704.5
     17,  0.658811986,     -3705.25
     18,  0.658811986,       -3706.
     19,  0.658811986,     -3706.75
     20,  0.658811986,      -3707.5
** ... 8401 like lines cut
*Element, type=CAX4
   1,    1,   11, 2038,  822
   2,   11,   12, 2039, 2038
   3,   12,   13, 2040, 2039
   4,   13,   14, 2041, 2040
   5,   14,   15, 2042, 2041
   6,   15,   16, 2043, 2042
   7,   16,   17, 2044, 2043
   8,   17,   18, 2045, 2044
   9,   18,   19, 2046, 2045
  10,   19,   20, 2047, 2046
  11,   20,   21, 2048, 2047
  12,   21,   22, 2049, 2048
  13,   22,   23, 2050, 2049
  14,   23,   24, 2051, 2050
  15,   24,   25, 2052, 2051
  16,   25,   26, 2053, 2052
  17,   26,   27, 2054, 2053
  18,   27,   28, 2055, 2054
  19,   28,   29, 2056, 2055
  20,   29,   30, 2057, 2056
** ... 7980 like lines cut
*Node
   8422,           0.,       -3700.,           0.
*Nset, nset=HydraPartInstance-RefPt_, internal
8422, 
*Nset, nset=MESH_TT_ROCK_FAR
   1,   2,   3,   4, 410, 411, 412, 413, 414, 415, 416, 816, 817, 818, 819, 820
 821, 822
*Elset, elset=MESH_TT_ROCK_FAR
    1,  400,  401,  800,  801, 1200, 1201, 1600, 1601, 2000, 2001, 2400, 2401, 2800, 2801, 3200
*Nset, nset=MESH_TT_ROCK_NEAR
    1,    2,    5,    6, 1222, 1223, 1224, 1225, 1226, 1227
*Elset, elset=MESH_TT_ROCK_NEAR
 3201, 3600, 3601, 4000, 4001, 4400, 4401, 4800
*Nset, nset=MESH_VERTICAL
    1,    2,    3,    4,    5,    6,    7,    8,    9,   10,   11,   12,   13,   14,   15,   16
   17,   18,   19,   20,   21,   22,   23,   24,   25,   26,   27,   28,   29,   30,   31,   32
   33,   34,   35,   36,   37,   38,   39,   40,   41,   42,   43,   44,   45,   46,   47,   48
   49,   50,   51,   52,   53,   54,   55,   56,   57,   58,   59,   60,   61,   62,   63,   64
   65,   66,   67,   68,   69,   70,   71,   72,   73,   74,   75,   76,   77,   78,   79,   80
   81,   82,   83,   84,   85,   86,   87,   88,   89,   90,   91,   92,   93,   94,   95,   96
   97,   98,   99,  100,  101,  102,  103,  104,  105,  106,  107,  108,  109,  110,  111,  112
  113,  114,  115,  116,  117,  118,  119,  120,  121,  122,  123,  124,  125,  126,  127,  128
  129,  130,  131,  132,  133,  134,  135,  136,  137,  138,  139,  140,  141,  142,  143,  144
  145,  146,  147,  148,  149,  150,  151,  152,  153,  154,  155,  156,  157,  158,  159,  160
  161,  162,  163,  164,  165,  166,  167,  168,  169,  170,  171,  172,  173,  174,  175,  176
  177,  178,  179,  180,  181,  182,  183,  184,  185,  186,  187,  188,  189,  190,  191,  192
  193,  194,  195,  196,  197,  198,  199,  200,  201,  202,  203,  204,  205,  206,  207,  208
  209,  210,  211,  212,  213,  214,  215,  216,  217,  218,  219,  220,  221,  222,  223,  224
  225,  226,  227,  228,  229,  230,  231,  232,  233,  234,  235,  236,  237,  238,  239,  240
  241,  242,  243,  244,  245,  246,  247,  248,  249,  250,  251,  252,  253,  254,  255,  256
  257,  258,  259,  260,  261,  262,  263,  264,  265,  266,  267,  268,  269,  270,  271,  272
  273,  274,  275,  276,  277,  278,  279,  280,  281,  282,  283,  284,  285,  286,  287,  288
  289,  290,  291,  292,  293,  294,  295,  296,  297,  298,  299,  300,  301,  302,  303,  304
  305,  306,  307,  308,  309,  310,  311,  312,  313,  314,  315,  316,  317,  318,  319,  320
** ... 106 like lines cut
*Elset, elset=MESH_VERTICAL
    1,    2,    3,    4,    5,    6,    7,    8,    9,   10,   11,   12,   13,   14,   15,   16
   17,   18,   19,   20,   21,   22,   23,   24,   25,   26,   27,   28,   29,   30,   31,   32
   33,   34,   35,   36,   37,   38,   39,   40,   41,   42,   43,   44,   45,   46,   47,   48
   49,   50,   51,   52,   53,   54,   55,   56,   57,   58,   59,   60,   61,   62,   63,   64
   65,   66,   67,   68,   69,   70,   71,   72,   73,   74,   75,   76,   77,   78,   79,   80
   81,   82,   83,   84,   85,   86,   87,   88,   89,   90,   91,   92,   93,   94,   95,   96
   97,   98,   99,  100,  101,  102,  103,  104,  105,  106,  107,  108,  109,  110,  111,  112
  113,  114,  115,  116,  117,  118,  119,  120,  121,  122,  123,  124,  125,  126,  127,  128
  129,  130,  131,  132,  133,  134,  135,  136,  137,  138,  139,  140,  141,  142,  143,  144
  145,  146,  147,  148,  149,  150,  151,  152,  153,  154,  155,  156,  157,  158,  159,  160
  161,  162,  163,  164,  165,  166,  167,  168,  169,  170,  171,  172,  173,  174,  175,  176
  177,  178,  179,  180,  181,  182,  183,  184,  185,  186,  187,  188,  189,  190,  191,  192
  193,  194,  195,  196,  197,  198,  199,  200,  201,  202,  203,  204,  205,  206,  207,  208
  209,  210,  211,  212,  213,  214,  215,  216,  217,  218,  219,  220,  221,  222,  223,  224
  225,  226,  227,  228,  229,  230,  231,  232,  233,  234,  235,  236,  237,  238,  239,  240
  241,  242,  243,  244,  245,  246,  247,  248,  249,  250,  251,  252,  253,  254,  255,  256
  257,  258,  259,  260,  261,  262,  263,  264,  265,  266,  267,  268,  269,  270,  271,  272
  273,  274,  275,  276,  277,  278,  279,  280,  281,  282,  283,  284,  285,  286,  287,  288
  289,  290,  291,  292,  293,  294,  295,  296,  297,  298,  299,  300,  301,  302,  303,  304
  305,  306,  307,  308,  309,  310,  311,  312,  313,  314,  315,  316,  317,  318,  319,  320
** ... 180 like lines cut
*Nset, nset=MESH_TT_PIPES
    7,    8,    9,   10, 1627, 1628, 1629, 2029, 2030, 2031
*Elset, elset=MESH_TT_PIPES
 4801, 5200, 5201, 5600, 5601, 6000, 6001, 6400
*Nset, nset=MESH_TT_ANNULARS
    5,    6,    7,    8, 2032, 2033, 2034, 2035, 2036, 2037
*Elset, elset=MESH_TT_ANNULARS
 6401, 6800, 6801, 7200, 7201, 7600, 7601, 8000
*Nset, nset=ALL, generate
    1,  8421,     1
*Elset, elset=ALL, generate
    1,  8000,     1
*Nset, nset=ROCK_BC
   3,   4, 417, 418, 419, 420, 421, 422, 423, 424, 425, 426, 427, 428, 429, 430
 431, 432, 433, 434, 435, 436, 437, 438, 439, 440, 441, 442, 443, 444, 445, 446
 447, 448, 449, 450, 451, 452, 453, 454, 455, 456, 457, 458, 459, 460, 461, 462
 463, 464, 465, 466, 467, 468, 469, 470, 471, 472, 473, 474, 475, 476, 477, 478
 479, 480, 481, 482, 483, 484, 485, 486, 487, 488, 489, 490, 491, 492, 493, 494
 495, 496, 497, 498, 499, 500, 501, 502, 503, 504, 505, 506, 507, 508, 509, 510
 511, 512, 513, 514, 515, 516, 517, 518, 519, 520, 521, 522, 523, 524, 525, 526
 527, 528, 529, 530, 531, 532, 533, 534, 535, 536, 537, 538, 539, 540, 541, 542
 543, 544, 545, 546, 547, 548, 549, 550, 551, 552, 553, 554, 555, 556, 557, 558
 559, 560, 561, 562, 563, 564, 565, 566, 567, 568, 569, 570, 571, 572, 573, 574
 575, 576, 577, 578, 579, 580, 581, 582, 583, 584, 585, 586, 587, 588, 589, 590
 591, 592, 593, 594, 595, 596, 597, 598, 599, 600, 601, 602, 603, 604, 605, 606
 607, 608, 609, 610, 611, 612, 613, 614, 615, 616, 617, 618, 619, 620, 621, 622
 623, 624, 625, 626, 627, 628, 629, 630, 631, 632, 633, 634, 635, 636, 637, 638
 639, 640, 641, 642, 643, 644, 645, 646, 647, 648, 649, 650, 651, 652, 653, 654
 655, 656, 657, 658, 659, 660, 661, 662, 663, 664, 665, 666, 667, 668, 669, 670
 671, 672, 673, 674, 675, 676, 677, 678, 679, 680, 681, 682, 683, 684, 685, 686
 687, 688, 689, 690, 691, 692, 693, 694, 695, 696, 697, 698, 699, 700, 701, 702
 703, 704, 705, 706, 707, 708, 709, 710, 711, 712, 713, 714, 715, 716, 717, 718
 719, 720, 721, 722, 723, 724, 725, 726, 727, 728, 729, 730, 731, 732, 733, 734
** ... 6 like lines cut
*Elset, elset=ROCK_BC, generate
 2801,  3200,     1
*Nset, nset=YSYM_TOP
    1,    4,    5,    8,    9,  816,  817,  818,  819,  820,  821,  822, 1225, 1226, 1227, 1627
 1628, 1629, 2035, 2036, 2037
*Elset, elset=YSYM_TOP
    1,  401,  801, 1201, 1601, 2001, 2401, 2801, 3201, 3601, 4001, 4401, 5200, 5600, 6000, 6400
 6401, 6801, 7201, 7601
*Nset, nset=YSYM_BASE
    2,    3,    6,    7,   10,  410,  411,  412,  413,  414,  415,  416, 1222, 1223, 1224, 2029
 2030, 2031, 2032, 2033, 2034
*Elset, elset=YSYM_BASE
  400,  800, 1200, 1600, 2000, 2400, 2800, 3200, 3600, 4000, 4400, 4800, 4801, 5201, 5601, 6001
 6800, 7200, 7600, 8000
*Nset, nset=FASEI_REV
    7,    8,    9,   10, 1228, 1229, 1230, 1231, 1232, 1233, 1234, 1235, 1236, 1237, 1238, 1239
 1240, 1241, 1242, 1243, 1244, 1245, 1246, 1247, 1248, 1249, 1250, 1251, 1252, 1253, 1254, 1255
 1256, 1257, 1258, 1259, 1260, 1261, 1262, 1263, 1264, 1265, 1266, 1267, 1268, 1269, 1270, 1271
 1272, 1273, 1274, 1275, 1276, 1277, 1278, 1279, 1280, 1281, 1282, 1283, 1284, 1285, 1286, 1287
 1288, 1289, 1290, 1291, 1292, 1293, 1294, 1295, 1296, 1297, 1298, 1299, 1300, 1301, 1302, 1303
 1304, 1305, 1306, 1307, 1308, 1309, 1310, 1311, 1312, 1313, 1314, 1315, 1316, 1317, 1318, 1319
 1320, 1321, 1322, 1323, 1324, 1325, 1326, 1327, 1328, 1329, 1330, 1331, 1332, 1333, 1334, 1335
 1336, 1337, 1338, 1339, 1340, 1341, 1342, 1343, 1344, 1345, 1346, 1347, 1348, 1349, 1350, 1351
 1352, 1353, 1354, 1355, 1356, 1357, 1358, 1359, 1360, 1361, 1362, 1363, 1364, 1365, 1366, 1367
 1368, 1369, 1370, 1371, 1372, 1373, 1374, 1375, 1376, 1377, 1378, 1379, 1380, 1381, 1382, 1383
 1384, 1385, 1386, 1387, 1388, 1389, 1390, 1391, 1392, 1393, 1394, 1395, 1396, 1397, 1398, 1399
 1400, 1401, 1402, 1403, 1404, 1405, 1406, 1407, 1408, 1409, 1410, 1411, 1412, 1413, 1414, 1415
 1416, 1417, 1418, 1419, 1420, 1421, 1422, 1423, 1424, 1425, 1426, 1427, 1428, 1429, 1430, 1431
 1432, 1433, 1434, 1435, 1436, 1437, 1438, 1439, 1440, 1441, 1442, 1443, 1444, 1445, 1446, 1447
 1448, 1449, 1450, 1451, 1452, 1453, 1454, 1455, 1456, 1457, 1458, 1459, 1460, 1461, 1462, 1463
 1464, 1465, 1466, 1467, 1468, 1469, 1470, 1471, 1472, 1473, 1474, 1475, 1476, 1477, 1478, 1479
 1480, 1481, 1482, 1483, 1484, 1485, 1486, 1487, 1488, 1489, 1490, 1491, 1492, 1493, 1494, 1495
 1496, 1497, 1498, 1499, 1500, 1501, 1502, 1503, 1504, 1505, 1506, 1507, 1508, 1509, 1510, 1511
 1512, 1513, 1514, 1515, 1516, 1517, 1518, 1519, 1520, 1521, 1522, 1523, 1524, 1525, 1526, 1527
 1528, 1529, 1530, 1531, 1532, 1533, 1534, 1535, 1536, 1537, 1538, 1539, 1540, 1541, 1542, 1543
** ... 106 like lines cut
*Elset, elset=FASEI_REV, generate
 4801,  6400,     1
*Nset, nset=FASEI_REV_ID
    9,   10, 1630, 1631, 1632, 1633, 1634, 1635, 1636, 1637, 1638, 1639, 1640, 1641, 1642, 1643
 1644, 1645, 1646, 1647, 1648, 1649, 1650, 1651, 1652, 1653, 1654, 1655, 1656, 1657, 1658, 1659
 1660, 1661, 1662, 1663, 1664, 1665, 1666, 1667, 1668, 1669, 1670, 1671, 1672, 1673, 1674, 1675
 1676, 1677, 1678, 1679, 1680, 1681, 1682, 1683, 1684, 1685, 1686, 1687, 1688, 1689, 1690, 1691
 1692, 1693, 1694, 1695, 1696, 1697, 1698, 1699, 1700, 1701, 1702, 1703, 1704, 1705, 1706, 1707
 1708, 1709, 1710, 1711, 1712, 1713, 1714, 1715, 1716, 1717, 1718, 1719, 1720, 1721, 1722, 1723
 1724, 1725, 1726, 1727, 1728, 1729, 1730, 1731, 1732, 1733, 1734, 1735, 1736, 1737, 1738, 1739
 1740, 1741, 1742, 1743, 1744, 1745, 1746, 1747, 1748, 1749, 1750, 1751, 1752, 1753, 1754, 1755
 1756, 1757, 1758, 1759, 1760, 1761, 1762, 1763, 1764, 1765, 1766, 1767, 1768, 1769, 1770, 1771
 1772, 1773, 1774, 1775, 1776, 1777, 1778, 1779, 1780, 1781, 1782, 1783, 1784, 1785, 1786, 1787
 1788, 1789, 1790, 1791, 1792, 1793, 1794, 1795, 1796, 1797, 1798, 1799, 1800, 1801, 1802, 1803
 1804, 1805, 1806, 1807, 1808, 1809, 1810, 1811, 1812, 1813, 1814, 1815, 1816, 1817, 1818, 1819
 1820, 1821, 1822, 1823, 1824, 1825, 1826, 1827, 1828, 1829, 1830, 1831, 1832, 1833, 1834, 1835
 1836, 1837, 1838, 1839, 1840, 1841, 1842, 1843, 1844, 1845, 1846, 1847, 1848, 1849, 1850, 1851
 1852, 1853, 1854, 1855, 1856, 1857, 1858, 1859, 1860, 1861, 1862, 1863, 1864, 1865, 1866, 1867
 1868, 1869, 1870, 1871, 1872, 1873, 1874, 1875, 1876, 1877, 1878, 1879, 1880, 1881, 1882, 1883
 1884, 1885, 1886, 1887, 1888, 1889, 1890, 1891, 1892, 1893, 1894, 1895, 1896, 1897, 1898, 1899
 1900, 1901, 1902, 1903, 1904, 1905, 1906, 1907, 1908, 1909, 1910, 1911, 1912, 1913, 1914, 1915
 1916, 1917, 1918, 1919, 1920, 1921, 1922, 1923, 1924, 1925, 1926, 1927, 1928, 1929, 1930, 1931
 1932, 1933, 1934, 1935, 1936, 1937, 1938, 1939, 1940, 1941, 1942, 1943, 1944, 1945, 1946, 1947
** ... 6 like lines cut
*Elset, elset=FASEI_REV_ID, generate
 6001,  6400,     1
*Nset, nset=FASEI_REV_OD
    7,    8, 1228, 1229, 1230, 1231, 1232, 1233, 1234, 1235, 1236, 1237, 1238, 1239, 1240, 1241
 1242, 1243, 1244, 1245, 1246, 1247, 1248, 1249, 1250, 1251, 1252, 1253, 1254, 1255, 1256, 1257
 1258, 1259, 1260, 1261, 1262, 1263, 1264, 1265, 1266, 1267, 1268, 1269, 1270, 1271, 1272, 1273
 1274, 1275, 1276, 1277, 1278, 1279, 1280, 1281, 1282, 1283, 1284, 1285, 1286, 1287, 1288, 1289
 1290, 1291, 1292, 1293, 1294, 1295, 1296, 1297, 1298, 1299, 1300, 1301, 1302, 1303, 1304, 1305
 1306, 1307, 1308, 1309, 1310, 1311, 1312, 1313, 1314, 1315, 1316, 1317, 1318, 1319, 1320, 1321
 1322, 1323, 1324, 1325, 1326, 1327, 1328, 1329, 1330, 1331, 1332, 1333, 1334, 1335, 1336, 1337
 1338, 1339, 1340, 1341, 1342, 1343, 1344, 1345, 1346, 1347, 1348, 1349, 1350, 1351, 1352, 1353
 1354, 1355, 1356, 1357, 1358, 1359, 1360, 1361, 1362, 1363, 1364, 1365, 1366, 1367, 1368, 1369
 1370, 1371, 1372, 1373, 1374, 1375, 1376, 1377, 1378, 1379, 1380, 1381, 1382, 1383, 1384, 1385
 1386, 1387, 1388, 1389, 1390, 1391, 1392, 1393, 1394, 1395, 1396, 1397, 1398, 1399, 1400, 1401
 1402, 1403, 1404, 1405, 1406, 1407, 1408, 1409, 1410, 1411, 1412, 1413, 1414, 1415, 1416, 1417
 1418, 1419, 1420, 1421, 1422, 1423, 1424, 1425, 1426, 1427, 1428, 1429, 1430, 1431, 1432, 1433
 1434, 1435, 1436, 1437, 1438, 1439, 1440, 1441, 1442, 1443, 1444, 1445, 1446, 1447, 1448, 1449
 1450, 1451, 1452, 1453, 1454, 1455, 1456, 1457, 1458, 1459, 1460, 1461, 1462, 1463, 1464, 1465
 1466, 1467, 1468, 1469, 1470, 1471, 1472, 1473, 1474, 1475, 1476, 1477, 1478, 1479, 1480, 1481
 1482, 1483, 1484, 1485, 1486, 1487, 1488, 1489, 1490, 1491, 1492, 1493, 1494, 1495, 1496, 1497
 1498, 1499, 1500, 1501, 1502, 1503, 1504, 1505, 1506, 1507, 1508, 1509, 1510, 1511, 1512, 1513
 1514, 1515, 1516, 1517, 1518, 1519, 1520, 1521, 1522, 1523, 1524, 1525, 1526, 1527, 1528, 1529
 1530, 1531, 1532, 1533, 1534, 1535, 1536, 1537, 1538, 1539, 1540, 1541, 1542, 1543, 1544, 1545
** ... 6 like lines cut
*Elset, elset=FASEI_REV_OD
 4801, 4802, 4803, 4804, 4805, 4806, 4807, 4808, 4809, 4810, 4811, 4812, 4813, 4814, 4815, 4816
 4817, 4818, 4819, 4820, 4821, 4822, 4823, 4824, 4825, 4826, 4827, 4828, 4829, 4830, 4831, 4832
 4833, 4834, 4835, 4836, 4837, 4838, 4839, 4840, 4841, 4842, 4843, 4844, 4845, 4846, 4847, 4848
 4849, 4850, 4851, 4852, 4853, 4854, 4855, 4856, 4857, 4858, 4859, 4860, 4861, 4862, 4863, 4864
 4865, 4866, 4867, 4868, 4869, 4870, 4871, 4872, 4873, 4874, 4875, 4876, 4877, 4878, 4879, 4880
 4881, 4882, 4883, 4884, 4885, 4886, 4887, 4888, 4889, 4890, 4891, 4892, 4893, 4894, 4895, 4896
 4897, 4898, 4899, 4900, 4901, 4902, 4903, 4904, 4905, 4906, 4907, 4908, 4909, 4910, 4911, 4912
 4913, 4914, 4915, 4916, 4917, 4918, 4919, 4920, 4921, 4922, 4923, 4924, 4925, 4926, 4927, 4928
 4929, 4930, 4931, 4932, 4933, 4934, 4935, 4936, 4937, 4938, 4939, 4940, 4941, 4942, 4943, 4944
 4945, 4946, 4947, 4948, 4949, 4950, 4951, 4952, 4953, 4954, 4955, 4956, 4957, 4958, 4959, 4960
 4961, 4962, 4963, 4964, 4965, 4966, 4967, 4968, 4969, 4970, 4971, 4972, 4973, 4974, 4975, 4976
 4977, 4978, 4979, 4980, 4981, 4982, 4983, 4984, 4985, 4986, 4987, 4988, 4989, 4990, 4991, 4992
 4993, 4994, 4995, 4996, 4997, 4998, 4999, 5000, 5001, 5002, 5003, 5004, 5005, 5006, 5007, 5008
 5009, 5010, 5011, 5012, 5013, 5014, 5015, 5016, 5017, 5018, 5019, 5020, 5021, 5022, 5023, 5024
 5025, 5026, 5027, 5028, 5029, 5030, 5031, 5032, 5033, 5034, 5035, 5036, 5037, 5038, 5039, 5040
 5041, 5042, 5043, 5044, 5045, 5046, 5047, 5048, 5049, 5050, 5051, 5052, 5053, 5054, 5055, 5056
 5057, 5058, 5059, 5060, 5061, 5062, 5063, 5064, 5065, 5066, 5067, 5068, 5069, 5070, 5071, 5072
 5073, 5074, 5075, 5076, 5077, 5078, 5079, 5080, 5081, 5082, 5083, 5084, 5085, 5086, 5087, 5088
 5089, 5090, 5091, 5092, 5093, 5094, 5095, 5096, 5097, 5098, 5099, 5100, 5101, 5102, 5103, 5104
 5105, 5106, 5107, 5108, 5109, 5110, 5111, 5112, 5113, 5114, 5115, 5116, 5117, 5118, 5119, 5120
** ... 30 like lines cut
*Nset, nset=FASEI_REV_TOP
    8,    9, 1627, 1628, 1629
*Elset, elset=FASEI_REV_TOP, generate
 5200,  6400,   400
*Nset, nset=FASEI_REV_BASE
    7,   10, 2029, 2030, 2031
*Elset, elset=FASEI_REV_BASE, generate
 4801,  6001,   400
*Nset, nset=FASEI_REV_TT
    7,    8,    9,   10, 1627, 1628, 1629, 2029, 2030, 2031
*Elset, elset=FASEI_REV_TT
 4801, 5200, 5201, 5600, 5601, 6000, 6001, 6400
*Nset, nset=FASEI_ANNULAR
    5,    6,    7,    8,  823,  824,  825,  826,  827,  828,  829,  830,  831,  832,  833,  834
  835,  836,  837,  838,  839,  840,  841,  842,  843,  844,  845,  846,  847,  848,  849,  850
  851,  852,  853,  854,  855,  856,  857,  858,  859,  860,  861,  862,  863,  864,  865,  866
  867,  868,  869,  870,  871,  872,  873,  874,  875,  876,  877,  878,  879,  880,  881,  882
  883,  884,  885,  886,  887,  888,  889,  890,  891,  892,  893,  894,  895,  896,  897,  898
  899,  900,  901,  902,  903,  904,  905,  906,  907,  908,  909,  910,  911,  912,  913,  914
  915,  916,  917,  918,  919,  920,  921,  922,  923,  924,  925,  926,  927,  928,  929,  930
  931,  932,  933,  934,  935,  936,  937,  938,  939,  940,  941,  942,  943,  944,  945,  946
  947,  948,  949,  950,  951,  952,  953,  954,  955,  956,  957,  958,  959,  960,  961,  962
  963,  964,  965,  966,  967,  968,  969,  970,  971,  972,  973,  974,  975,  976,  977,  978
  979,  980,  981,  982,  983,  984,  985,  986,  987,  988,  989,  990,  991,  992,  993,  994
  995,  996,  997,  998,  999, 1000, 1001, 1002, 1003, 1004, 1005, 1006, 1007, 1008, 1009, 1010
 1011, 1012, 1013, 1014, 1015, 1016, 1017, 1018, 1019, 1020, 1021, 1022, 1023, 1024, 1025, 1026
 1027, 1028, 1029, 1030, 1031, 1032, 1033, 1034, 1035, 1036, 1037, 1038, 1039, 1040, 1041, 1042
 1043, 1044, 1045, 1046, 1047, 1048, 1049, 1050, 1051, 1052, 1053, 1054, 1055, 1056, 1057, 1058
 1059, 1060, 1061, 1062, 1063, 1064, 1065, 1066, 1067, 1068, 1069, 1070, 1071, 1072, 1073, 1074
 1075, 1076, 1077, 1078, 1079, 1080, 1081, 1082, 1083, 1084, 1085, 1086, 1087, 1088, 1089, 1090
 1091, 1092, 1093, 1094, 1095, 1096, 1097, 1098, 1099, 1100, 1101, 1102, 1103, 1104, 1105, 1106
 1107, 1108, 1109, 1110, 1111, 1112, 1113, 1114, 1115, 1116, 1117, 1118, 1119, 1120, 1121, 1122
 1123, 1124, 1125, 1126, 1127, 1128, 1129, 1130, 1131, 1132, 1133, 1134, 1135, 1136, 1137, 1138
** ... 106 like lines cut
*Elset, elset=FASEI_ANNULAR, generate
 6401,  8000,     1
*Nset, nset=FASEI_ANNULAR_ID
    7,    8, 1228, 1229, 1230, 1231, 1232, 1233, 1234, 1235, 1236, 1237, 1238, 1239, 1240, 1241
 1242, 1243, 1244, 1245, 1246, 1247, 1248, 1249, 1250, 1251, 1252, 1253, 1254, 1255, 1256, 1257
 1258, 1259, 1260, 1261, 1262, 1263, 1264, 1265, 1266, 1267, 1268, 1269, 1270, 1271, 1272, 1273
 1274, 1275, 1276, 1277, 1278, 1279, 1280, 1281, 1282, 1283, 1284, 1285, 1286, 1287, 1288, 1289
 1290, 1291, 1292, 1293, 1294, 1295, 1296, 1297, 1298, 1299, 1300, 1301, 1302, 1303, 1304, 1305
 1306, 1307, 1308, 1309, 1310, 1311, 1312, 1313, 1314, 1315, 1316, 1317, 1318, 1319, 1320, 1321
 1322, 1323, 1324, 1325, 1326, 1327, 1328, 1329, 1330, 1331, 1332, 1333, 1334, 1335, 1336, 1337
 1338, 1339, 1340, 1341, 1342, 1343, 1344, 1345, 1346, 1347, 1348, 1349, 1350, 1351, 1352, 1353
 1354, 1355, 1356, 1357, 1358, 1359, 1360, 1361, 1362, 1363, 1364, 1365, 1366, 1367, 1368, 1369
 1370, 1371, 1372, 1373, 1374, 1375, 1376, 1377, 1378, 1379, 1380, 1381, 1382, 1383, 1384, 1385
 1386, 1387, 1388, 1389, 1390, 1391, 1392, 1393, 1394, 1395, 1396, 1397, 1398, 1399, 1400, 1401
 1402, 1403, 1404, 1405, 1406, 1407, 1408, 1409, 1410, 1411, 1412, 1413, 1414, 1415, 1416, 1417
 1418, 1419, 1420, 1421, 1422, 1423, 1424, 1425, 1426, 1427, 1428, 1429, 1430, 1431, 1432, 1433
 1434, 1435, 1436, 1437, 1438, 1439, 1440, 1441, 1442, 1443, 1444, 1445, 1446, 1447, 1448, 1449
 1450, 1451, 1452, 1453, 1454, 1455, 1456, 1457, 1458, 1459, 1460, 1461, 1462, 1463, 1464, 1465
 1466, 1467, 1468, 1469, 1470, 1471, 1472, 1473, 1474, 1475, 1476, 1477, 1478, 1479, 1480, 1481
 1482, 1483, 1484, 1485, 1486, 1487, 1488, 1489, 1490, 1491, 1492, 1493, 1494, 1495, 1496, 1497
 1498, 1499, 1500, 1501, 1502, 1503, 1504, 1505, 1506, 1507, 1508, 1509, 1510, 1511, 1512, 1513
 1514, 1515, 1516, 1517, 1518, 1519, 1520, 1521, 1522, 1523, 1524, 1525, 1526, 1527, 1528, 1529
 1530, 1531, 1532, 1533, 1534, 1535, 1536, 1537, 1538, 1539, 1540, 1541, 1542, 1543, 1544, 1545
** ... 6 like lines cut
*Elset, elset=FASEI_ANNULAR_ID
 4801, 4802, 4803, 4804, 4805, 4806, 4807, 4808, 4809, 4810, 4811, 4812, 4813, 4814, 4815, 4816
 4817, 4818, 4819, 4820, 4821, 4822, 4823, 4824, 4825, 4826, 4827, 4828, 4829, 4830, 4831, 4832
 4833, 4834, 4835, 4836, 4837, 4838, 4839, 4840, 4841, 4842, 4843, 4844, 4845, 4846, 4847, 4848
 4849, 4850, 4851, 4852, 4853, 4854, 4855, 4856, 4857, 4858, 4859, 4860, 4861, 4862, 4863, 4864
 4865, 4866, 4867, 4868, 4869, 4870, 4871, 4872, 4873, 4874, 4875, 4876, 4877, 4878, 4879, 4880
 4881, 4882, 4883, 4884, 4885, 4886, 4887, 4888, 4889, 4890, 4891, 4892, 4893, 4894, 4895, 4896
 4897, 4898, 4899, 4900, 4901, 4902, 4903, 4904, 4905, 4906, 4907, 4908, 4909, 4910, 4911, 4912
 4913, 4914, 4915, 4916, 4917, 4918, 4919, 4920, 4921, 4922, 4923, 4924, 4925, 4926, 4927, 4928
 4929, 4930, 4931, 4932, 4933, 4934, 4935, 4936, 4937, 4938, 4939, 4940, 4941, 4942, 4943, 4944
 4945, 4946, 4947, 4948, 4949, 4950, 4951, 4952, 4953, 4954, 4955, 4956, 4957, 4958, 4959, 4960
 4961, 4962, 4963, 4964, 4965, 4966, 4967, 4968, 4969, 4970, 4971, 4972, 4973, 4974, 4975, 4976
 4977, 4978, 4979, 4980, 4981, 4982, 4983, 4984, 4985, 4986, 4987, 4988, 4989, 4990, 4991, 4992
 4993, 4994, 4995, 4996, 4997, 4998, 4999, 5000, 5001, 5002, 5003, 5004, 5005, 5006, 5007, 5008
 5009, 5010, 5011, 5012, 5013, 5014, 5015, 5016, 5017, 5018, 5019, 5020, 5021, 5022, 5023, 5024
 5025, 5026, 5027, 5028, 5029, 5030, 5031, 5032, 5033, 5034, 5035, 5036, 5037, 5038, 5039, 5040
 5041, 5042, 5043, 5044, 5045, 5046, 5047, 5048, 5049, 5050, 5051, 5052, 5053, 5054, 5055, 5056
 5057, 5058, 5059, 5060, 5061, 5062, 5063, 5064, 5065, 5066, 5067, 5068, 5069, 5070, 5071, 5072
 5073, 5074, 5075, 5076, 5077, 5078, 5079, 5080, 5081, 5082, 5083, 5084, 5085, 5086, 5087, 5088
 5089, 5090, 5091, 5092, 5093, 5094, 5095, 5096, 5097, 5098, 5099, 5100, 5101, 5102, 5103, 5104
 5105, 5106, 5107, 5108, 5109, 5110, 5111, 5112, 5113, 5114, 5115, 5116, 5117, 5118, 5119, 5120
** ... 30 like lines cut
*Nset, nset=FASEI_ANNULAR_OD
    5,    6,  823,  824,  825,  826,  827,  828,  829,  830,  831,  832,  833,  834,  835,  836
  837,  838,  839,  840,  841,  842,  843,  844,  845,  846,  847,  848,  849,  850,  851,  852
  853,  854,  855,  856,  857,  858,  859,  860,  861,  862,  863,  864,  865,  866,  867,  868
  869,  870,  871,  872,  873,  874,  875,  876,  877,  878,  879,  880,  881,  882,  883,  884
  885,  886,  887,  888,  889,  890,  891,  892,  893,  894,  895,  896,  897,  898,  899,  900
  901,  902,  903,  904,  905,  906,  907,  908,  909,  910,  911,  912,  913,  914,  915,  916
  917,  918,  919,  920,  921,  922,  923,  924,  925,  926,  927,  928,  929,  930,  931,  932
  933,  934,  935,  936,  937,  938,  939,  940,  941,  942,  943,  944,  945,  946,  947,  948
  949,  950,  951,  952,  953,  954,  955,  956,  957,  958,  959,  960,  961,  962,  963,  964
  965,  966,  967,  968,  969,  970,  971,  972,  973,  974,  975,  976,  977,  978,  979,  980
  981,  982,  983,  984,  985,  986,  987,  988,  989,  990,  991,  992,  993,  994,  995,  996
  997,  998,  999, 1000, 1001, 1002, 1003, 1004, 1005, 1006, 1007, 1008, 1009, 1010, 1011, 1012
 1013, 1014, 1015, 1016, 1017, 1018, 1019, 1020, 1021, 1022, 1023, 1024, 1025, 1026, 1027, 1028
 1029, 1030, 1031, 1032, 1033, 1034, 1035, 1036, 1037, 1038, 1039, 1040, 1041, 1042, 1043, 1044
 1045, 1046, 1047, 1048, 1049, 1050, 1051, 1052, 1053, 1054, 1055, 1056, 1057, 1058, 1059, 1060
 1061, 1062, 1063, 1064, 1065, 1066, 1067, 1068, 1069, 1070, 1071, 1072, 1073, 1074, 1075, 1076
 1077, 1078, 1079, 1080, 1081, 1082, 1083, 1084, 1085, 1086, 1087, 1088, 1089, 1090, 1091, 1092
 1093, 1094, 1095, 1096, 1097, 1098, 1099, 1100, 1101, 1102, 1103, 1104, 1105, 1106, 1107, 1108
 1109, 1110, 1111, 1112, 1113, 1114, 1115, 1116, 1117, 1118, 1119, 1120, 1121, 1122, 1123, 1124
 1125, 1126, 1127, 1128, 1129, 1130, 1131, 1132, 1133, 1134, 1135, 1136, 1137, 1138, 1139, 1140
** ... 6 like lines cut
*Elset, elset=FASEI_ANNULAR_OD
 3201, 3202, 3203, 3204, 3205, 3206, 3207, 3208, 3209, 3210, 3211, 3212, 3213, 3214, 3215, 3216
 3217, 3218, 3219, 3220, 3221, 3222, 3223, 3224, 3225, 3226, 3227, 3228, 3229, 3230, 3231, 3232
 3233, 3234, 3235, 3236, 3237, 3238, 3239, 3240, 3241, 3242, 3243, 3244, 3245, 3246, 3247, 3248
 3249, 3250, 3251, 3252, 3253, 3254, 3255, 3256, 3257, 3258, 3259, 3260, 3261, 3262, 3263, 3264
 3265, 3266, 3267, 3268, 3269, 3270, 3271, 3272, 3273, 3274, 3275, 3276, 3277, 3278, 3279, 3280
 3281, 3282, 3283, 3284, 3285, 3286, 3287, 3288, 3289, 3290, 3291, 3292, 3293, 3294, 3295, 3296
 3297, 3298, 3299, 3300, 3301, 3302, 3303, 3304, 3305, 3306, 3307, 3308, 3309, 3310, 3311, 3312
 3313, 3314, 3315, 3316, 3317, 3318, 3319, 3320, 3321, 3322, 3323, 3324, 3325, 3326, 3327, 3328
 3329, 3330, 3331, 3332, 3333, 3334, 3335, 3336, 3337, 3338, 3339, 3340, 3341, 3342, 3343, 3344
 3345, 3346, 3347, 3348, 3349, 3350, 3351, 3352, 3353, 3354, 3355, 3356, 3357, 3358, 3359, 3360
 3361, 3362, 3363, 3364, 3365, 3366, 3367, 3368, 3369, 3370, 3371, 3372, 3373, 3374, 3375, 3376
 3377, 3378, 3379, 3380, 3381, 3382, 3383, 3384, 3385, 3386, 3387, 3388, 3389, 3390, 3391, 3392
 3393, 3394, 3395, 3396, 3397, 3398, 3399, 3400, 3401, 3402, 3403, 3404, 3405, 3406, 3407, 3408
 3409, 3410, 3411, 3412, 3413, 3414, 3415, 3416, 3417, 3418, 3419, 3420, 3421, 3422, 3423, 3424
 3425, 3426, 3427, 3428, 3429, 3430, 3431, 3432, 3433, 3434, 3435, 3436, 3437, 3438, 3439, 3440
 3441, 3442, 3443, 3444, 3445, 3446, 3447, 3448, 3449, 3450, 3451, 3452, 3453, 3454, 3455, 3456
 3457, 3458, 3459, 3460, 3461, 3462, 3463, 3464, 3465, 3466, 3467, 3468, 3469, 3470, 3471, 3472
 3473, 3474, 3475, 3476, 3477, 3478, 3479, 3480, 3481, 3482, 3483, 3484, 3485, 3486, 3487, 3488
 3489, 3490, 3491, 3492, 3493, 3494, 3495, 3496, 3497, 3498, 3499, 3500, 3501, 3502, 3503, 3504
 3505, 3506, 3507, 3508, 3509, 3510, 3511, 3512, 3513, 3514, 3515, 3516, 3517, 3518, 3519, 3520
** ... 30 like lines cut
*Nset, nset=FASEI_ANNULAR_TOP
    5,    8, 2035, 2036, 2037
*Elset, elset=FASEI_ANNULAR_TOP, generate
 6401,  7601,   400
*Nset, nset=FASEI_ANNULAR_BASE
    6,    7, 2032, 2033, 2034
*Elset, elset=FASEI_ANNULAR_BASE, generate
 6800,  8000,   400
*Nset, nset=FASEI_ANNULAR_TT
    5,    6,    7,    8, 2032, 2033, 2034, 2035, 2036, 2037
*Elset, elset=FASEI_ANNULAR_TT
 6401, 6800, 6801, 7200, 7201, 7600, 7601, 8000
*Nset, nset=FASEI_REV_ABOVE_TOC
    7,    8,    9,   10, 1228, 1229, 1230, 1231, 1232, 1233, 1234, 1235, 1236, 1237, 1238, 1239
 1240, 1241, 1242, 1243, 1244, 1245, 1246, 1247, 1248, 1249, 1250, 1251, 1252, 1253, 1254, 1255
 1256, 1257, 1258, 1259, 1260, 1261, 1262, 1263, 1264, 1265, 1266, 1267, 1268, 1269, 1270, 1271
 1272, 1273, 1274, 1275, 1276, 1277, 1278, 1279, 1280, 1281, 1282, 1283, 1284, 1285, 1286, 1287
 1288, 1289, 1290, 1291, 1292, 1293, 1294, 1295, 1296, 1297, 1298, 1299, 1300, 1301, 1302, 1303
 1304, 1305, 1306, 1307, 1308, 1309, 1310, 1311, 1312, 1313, 1314, 1315, 1316, 1317, 1318, 1319
 1320, 1321, 1322, 1323, 1324, 1325, 1326, 1327, 1328, 1329, 1330, 1331, 1332, 1333, 1334, 1335
 1336, 1337, 1338, 1339, 1340, 1341, 1342, 1343, 1344, 1345, 1346, 1347, 1348, 1349, 1350, 1351
 1352, 1353, 1354, 1355, 1356, 1357, 1358, 1359, 1360, 1361, 1362, 1363, 1364, 1365, 1366, 1367
 1368, 1369, 1370, 1371, 1372, 1373, 1374, 1375, 1376, 1377, 1378, 1379, 1380, 1381, 1382, 1383
 1384, 1385, 1386, 1387, 1388, 1389, 1390, 1391, 1392, 1393, 1394, 1395, 1396, 1397, 1398, 1399
 1400, 1401, 1402, 1403, 1404, 1405, 1406, 1407, 1408, 1409, 1410, 1411, 1412, 1413, 1414, 1415
 1416, 1417, 1418, 1419, 1420, 1421, 1422, 1423, 1424, 1425, 1426, 1427, 1428, 1429, 1430, 1431
 1432, 1433, 1434, 1435, 1436, 1437, 1438, 1439, 1440, 1441, 1442, 1443, 1444, 1445, 1446, 1447
 1448, 1449, 1450, 1451, 1452, 1453, 1454, 1455, 1456, 1457, 1458, 1459, 1460, 1461, 1462, 1463
 1464, 1465, 1466, 1467, 1468, 1469, 1470, 1471, 1472, 1473, 1474, 1475, 1476, 1477, 1478, 1479
 1480, 1481, 1482, 1483, 1484, 1485, 1486, 1487, 1488, 1489, 1490, 1491, 1492, 1493, 1494, 1495
 1496, 1497, 1498, 1499, 1500, 1501, 1502, 1503, 1504, 1505, 1506, 1507, 1508, 1509, 1510, 1511
 1512, 1513, 1514, 1515, 1516, 1517, 1518, 1519, 1520, 1521, 1522, 1523, 1524, 1525, 1526, 1527
 1528, 1529, 1530, 1531, 1532, 1533, 1534, 1535, 1536, 1537, 1538, 1539, 1540, 1541, 1542, 1543
** ... 106 like lines cut
*Elset, elset=FASEI_REV_ABOVE_TOC, generate
 4801,  6400,     1
*Nset, nset=FASEI_FLUIDO
    5,    6,    7,    8,  823,  824,  825,  826,  827,  828,  829,  830,  831,  832,  833,  834
  835,  836,  837,  838,  839,  840,  841,  842,  843,  844,  845,  846,  847,  848,  849,  850
  851,  852,  853,  854,  855,  856,  857,  858,  859,  860,  861,  862,  863,  864,  865,  866
  867,  868,  869,  870,  871,  872,  873,  874,  875,  876,  877,  878,  879,  880,  881,  882
  883,  884,  885,  886,  887,  888,  889,  890,  891,  892,  893,  894,  895,  896,  897,  898
  899,  900,  901,  902,  903,  904,  905,  906,  907,  908,  909,  910,  911,  912,  913,  914
  915,  916,  917,  918,  919,  920,  921,  922,  923,  924,  925,  926,  927,  928,  929,  930
  931,  932,  933,  934,  935,  936,  937,  938,  939,  940,  941,  942,  943,  944,  945,  946
  947,  948,  949,  950,  951,  952,  953,  954,  955,  956,  957,  958,  959,  960,  961,  962
  963,  964,  965,  966,  967,  968,  969,  970,  971,  972,  973,  974,  975,  976,  977,  978
  979,  980,  981,  982,  983,  984,  985,  986,  987,  988,  989,  990,  991,  992,  993,  994
  995,  996,  997,  998,  999, 1000, 1001, 1002, 1003, 1004, 1005, 1006, 1007, 1008, 1009, 1010
 1011, 1012, 1013, 1014, 1015, 1016, 1017, 1018, 1019, 1020, 1021, 1022, 1023, 1024, 1025, 1026
 1027, 1028, 1029, 1030, 1031, 1032, 1033, 1034, 1035, 1036, 1037, 1038, 1039, 1040, 1041, 1042
 1043, 1044, 1045, 1046, 1047, 1048, 1049, 1050, 1051, 1052, 1053, 1054, 1055, 1056, 1057, 1058
 1059, 1060, 1061, 1062, 1063, 1064, 1065, 1066, 1067, 1068, 1069, 1070, 1071, 1072, 1073, 1074
 1075, 1076, 1077, 1078, 1079, 1080, 1081, 1082, 1083, 1084, 1085, 1086, 1087, 1088, 1089, 1090
 1091, 1092, 1093, 1094, 1095, 1096, 1097, 1098, 1099, 1100, 1101, 1102, 1103, 1104, 1105, 1106
 1107, 1108, 1109, 1110, 1111, 1112, 1113, 1114, 1115, 1116, 1117, 1118, 1119, 1120, 1121, 1122
 1123, 1124, 1125, 1126, 1127, 1128, 1129, 1130, 1131, 1132, 1133, 1134, 1135, 1136, 1137, 1138
** ... 106 like lines cut
*Elset, elset=FASEI_FLUIDO, generate
 6401,  8000,     1
*Nset, nset=FASEI_FLUIDO_ID
    7,    8, 1228, 1229, 1230, 1231, 1232, 1233, 1234, 1235, 1236, 1237, 1238, 1239, 1240, 1241
 1242, 1243, 1244, 1245, 1246, 1247, 1248, 1249, 1250, 1251, 1252, 1253, 1254, 1255, 1256, 1257
 1258, 1259, 1260, 1261, 1262, 1263, 1264, 1265, 1266, 1267, 1268, 1269, 1270, 1271, 1272, 1273
 1274, 1275, 1276, 1277, 1278, 1279, 1280, 1281, 1282, 1283, 1284, 1285, 1286, 1287, 1288, 1289
 1290, 1291, 1292, 1293, 1294, 1295, 1296, 1297, 1298, 1299, 1300, 1301, 1302, 1303, 1304, 1305
 1306, 1307, 1308, 1309, 1310, 1311, 1312, 1313, 1314, 1315, 1316, 1317, 1318, 1319, 1320, 1321
 1322, 1323, 1324, 1325, 1326, 1327, 1328, 1329, 1330, 1331, 1332, 1333, 1334, 1335, 1336, 1337
 1338, 1339, 1340, 1341, 1342, 1343, 1344, 1345, 1346, 1347, 1348, 1349, 1350, 1351, 1352, 1353
 1354, 1355, 1356, 1357, 1358, 1359, 1360, 1361, 1362, 1363, 1364, 1365, 1366, 1367, 1368, 1369
 1370, 1371, 1372, 1373, 1374, 1375, 1376, 1377, 1378, 1379, 1380, 1381, 1382, 1383, 1384, 1385
 1386, 1387, 1388, 1389, 1390, 1391, 1392, 1393, 1394, 1395, 1396, 1397, 1398, 1399, 1400, 1401
 1402, 1403, 1404, 1405, 1406, 1407, 1408, 1409, 1410, 1411, 1412, 1413, 1414, 1415, 1416, 1417
 1418, 1419, 1420, 1421, 1422, 1423, 1424, 1425, 1426, 1427, 1428, 1429, 1430, 1431, 1432, 1433
 1434, 1435, 1436, 1437, 1438, 1439, 1440, 1441, 1442, 1443, 1444, 1445, 1446, 1447, 1448, 1449
 1450, 1451, 1452, 1453, 1454, 1455, 1456, 1457, 1458, 1459, 1460, 1461, 1462, 1463, 1464, 1465
 1466, 1467, 1468, 1469, 1470, 1471, 1472, 1473, 1474, 1475, 1476, 1477, 1478, 1479, 1480, 1481
 1482, 1483, 1484, 1485, 1486, 1487, 1488, 1489, 1490, 1491, 1492, 1493, 1494, 1495, 1496, 1497
 1498, 1499, 1500, 1501, 1502, 1503, 1504, 1505, 1506, 1507, 1508, 1509, 1510, 1511, 1512, 1513
 1514, 1515, 1516, 1517, 1518, 1519, 1520, 1521, 1522, 1523, 1524, 1525, 1526, 1527, 1528, 1529
 1530, 1531, 1532, 1533, 1534, 1535, 1536, 1537, 1538, 1539, 1540, 1541, 1542, 1543, 1544, 1545
** ... 6 like lines cut
*Elset, elset=FASEI_FLUIDO_ID
 4801, 4802, 4803, 4804, 4805, 4806, 4807, 4808, 4809, 4810, 4811, 4812, 4813, 4814, 4815, 4816
 4817, 4818, 4819, 4820, 4821, 4822, 4823, 4824, 4825, 4826, 4827, 4828, 4829, 4830, 4831, 4832
 4833, 4834, 4835, 4836, 4837, 4838, 4839, 4840, 4841, 4842, 4843, 4844, 4845, 4846, 4847, 4848
 4849, 4850, 4851, 4852, 4853, 4854, 4855, 4856, 4857, 4858, 4859, 4860, 4861, 4862, 4863, 4864
 4865, 4866, 4867, 4868, 4869, 4870, 4871, 4872, 4873, 4874, 4875, 4876, 4877, 4878, 4879, 4880
 4881, 4882, 4883, 4884, 4885, 4886, 4887, 4888, 4889, 4890, 4891, 4892, 4893, 4894, 4895, 4896
 4897, 4898, 4899, 4900, 4901, 4902, 4903, 4904, 4905, 4906, 4907, 4908, 4909, 4910, 4911, 4912
 4913, 4914, 4915, 4916, 4917, 4918, 4919, 4920, 4921, 4922, 4923, 4924, 4925, 4926, 4927, 4928
 4929, 4930, 4931, 4932, 4933, 4934, 4935, 4936, 4937, 4938, 4939, 4940, 4941, 4942, 4943, 4944
 4945, 4946, 4947, 4948, 4949, 4950, 4951, 4952, 4953, 4954, 4955, 4956, 4957, 4958, 4959, 4960
 4961, 4962, 4963, 4964, 4965, 4966, 4967, 4968, 4969, 4970, 4971, 4972, 4973, 4974, 4975, 4976
 4977, 4978, 4979, 4980, 4981, 4982, 4983, 4984, 4985, 4986, 4987, 4988, 4989, 4990, 4991, 4992
 4993, 4994, 4995, 4996, 4997, 4998, 4999, 5000, 5001, 5002, 5003, 5004, 5005, 5006, 5007, 5008
 5009, 5010, 5011, 5012, 5013, 5014, 5015, 5016, 5017, 5018, 5019, 5020, 5021, 5022, 5023, 5024
 5025, 5026, 5027, 5028, 5029, 5030, 5031, 5032, 5033, 5034, 5035, 5036, 5037, 5038, 5039, 5040
 5041, 5042, 5043, 5044, 5045, 5046, 5047, 5048, 5049, 5050, 5051, 5052, 5053, 5054, 5055, 5056
 5057, 5058, 5059, 5060, 5061, 5062, 5063, 5064, 5065, 5066, 5067, 5068, 5069, 5070, 5071, 5072
 5073, 5074, 5075, 5076, 5077, 5078, 5079, 5080, 5081, 5082, 5083, 5084, 5085, 5086, 5087, 5088
 5089, 5090, 5091, 5092, 5093, 5094, 5095, 5096, 5097, 5098, 5099, 5100, 5101, 5102, 5103, 5104
 5105, 5106, 5107, 5108, 5109, 5110, 5111, 5112, 5113, 5114, 5115, 5116, 5117, 5118, 5119, 5120
** ... 30 like lines cut
*Nset, nset=FASEI_FLUIDO_OD
    5,    6,  823,  824,  825,  826,  827,  828,  829,  830,  831,  832,  833,  834,  835,  836
  837,  838,  839,  840,  841,  842,  843,  844,  845,  846,  847,  848,  849,  850,  851,  852
  853,  854,  855,  856,  857,  858,  859,  860,  861,  862,  863,  864,  865,  866,  867,  868
  869,  870,  871,  872,  873,  874,  875,  876,  877,  878,  879,  880,  881,  882,  883,  884
  885,  886,  887,  888,  889,  890,  891,  892,  893,  894,  895,  896,  897,  898,  899,  900
  901,  902,  903,  904,  905,  906,  907,  908,  909,  910,  911,  912,  913,  914,  915,  916
  917,  918,  919,  920,  921,  922,  923,  924,  925,  926,  927,  928,  929,  930,  931,  932
  933,  934,  935,  936,  937,  938,  939,  940,  941,  942,  943,  944,  945,  946,  947,  948
  949,  950,  951,  952,  953,  954,  955,  956,  957,  958,  959,  960,  961,  962,  963,  964
  965,  966,  967,  968,  969,  970,  971,  972,  973,  974,  975,  976,  977,  978,  979,  980
  981,  982,  983,  984,  985,  986,  987,  988,  989,  990,  991,  992,  993,  994,  995,  996
  997,  998,  999, 1000, 1001, 1002, 1003, 1004, 1005, 1006, 1007, 1008, 1009, 1010, 1011, 1012
 1013, 1014, 1015, 1016, 1017, 1018, 1019, 1020, 1021, 1022, 1023, 1024, 1025, 1026, 1027, 1028
 1029, 1030, 1031, 1032, 1033, 1034, 1035, 1036, 1037, 1038, 1039, 1040, 1041, 1042, 1043, 1044
 1045, 1046, 1047, 1048, 1049, 1050, 1051, 1052, 1053, 1054, 1055, 1056, 1057, 1058, 1059, 1060
 1061, 1062, 1063, 1064, 1065, 1066, 1067, 1068, 1069, 1070, 1071, 1072, 1073, 1074, 1075, 1076
 1077, 1078, 1079, 1080, 1081, 1082, 1083, 1084, 1085, 1086, 1087, 1088, 1089, 1090, 1091, 1092
 1093, 1094, 1095, 1096, 1097, 1098, 1099, 1100, 1101, 1102, 1103, 1104, 1105, 1106, 1107, 1108
 1109, 1110, 1111, 1112, 1113, 1114, 1115, 1116, 1117, 1118, 1119, 1120, 1121, 1122, 1123, 1124
 1125, 1126, 1127, 1128, 1129, 1130, 1131, 1132, 1133, 1134, 1135, 1136, 1137, 1138, 1139, 1140
** ... 6 like lines cut
*Elset, elset=FASEI_FLUIDO_OD
 3201, 3202, 3203, 3204, 3205, 3206, 3207, 3208, 3209, 3210, 3211, 3212, 3213, 3214, 3215, 3216
 3217, 3218, 3219, 3220, 3221, 3222, 3223, 3224, 3225, 3226, 3227, 3228, 3229, 3230, 3231, 3232
 3233, 3234, 3235, 3236, 3237, 3238, 3239, 3240, 3241, 3242, 3243, 3244, 3245, 3246, 3247, 3248
 3249, 3250, 3251, 3252, 3253, 3254, 3255, 3256, 3257, 3258, 3259, 3260, 3261, 3262, 3263, 3264
 3265, 3266, 3267, 3268, 3269, 3270, 3271, 3272, 3273, 3274, 3275, 3276, 3277, 3278, 3279, 3280
 3281, 3282, 3283, 3284, 3285, 3286, 3287, 3288, 3289, 3290, 3291, 3292, 3293, 3294, 3295, 3296
 3297, 3298, 3299, 3300, 3301, 3302, 3303, 3304, 3305, 3306, 3307, 3308, 3309, 3310, 3311, 3312
 3313, 3314, 3315, 3316, 3317, 3318, 3319, 3320, 3321, 3322, 3323, 3324, 3325, 3326, 3327, 3328
 3329, 3330, 3331, 3332, 3333, 3334, 3335, 3336, 3337, 3338, 3339, 3340, 3341, 3342, 3343, 3344
 3345, 3346, 3347, 3348, 3349, 3350, 3351, 3352, 3353, 3354, 3355, 3356, 3357, 3358, 3359, 3360
 3361, 3362, 3363, 3364, 3365, 3366, 3367, 3368, 3369, 3370, 3371, 3372, 3373, 3374, 3375, 3376
 3377, 3378, 3379, 3380, 3381, 3382, 3383, 3384, 3385, 3386, 3387, 3388, 3389, 3390, 3391, 3392
 3393, 3394, 3395, 3396, 3397, 3398, 3399, 3400, 3401, 3402, 3403, 3404, 3405, 3406, 3407, 3408
 3409, 3410, 3411, 3412, 3413, 3414, 3415, 3416, 3417, 3418, 3419, 3420, 3421, 3422, 3423, 3424
 3425, 3426, 3427, 3428, 3429, 3430, 3431, 3432, 3433, 3434, 3435, 3436, 3437, 3438, 3439, 3440
 3441, 3442, 3443, 3444, 3445, 3446, 3447, 3448, 3449, 3450, 3451, 3452, 3453, 3454, 3455, 3456
 3457, 3458, 3459, 3460, 3461, 3462, 3463, 3464, 3465, 3466, 3467, 3468, 3469, 3470, 3471, 3472
 3473, 3474, 3475, 3476, 3477, 3478, 3479, 3480, 3481, 3482, 3483, 3484, 3485, 3486, 3487, 3488
 3489, 3490, 3491, 3492, 3493, 3494, 3495, 3496, 3497, 3498, 3499, 3500, 3501, 3502, 3503, 3504
 3505, 3506, 3507, 3508, 3509, 3510, 3511, 3512, 3513, 3514, 3515, 3516, 3517, 3518, 3519, 3520
** ... 30 like lines cut
*Nset, nset=FASEI_FLUIDO_BASE
    6,    7, 2032, 2033, 2034
*Elset, elset=FASEI_FLUIDO_BASE, generate
 6800,  8000,   400
*Nset, nset=FASEI_FLUIDO_TOP
    5,    8, 2035, 2036, 2037
*Elset, elset=FASEI_FLUIDO_TOP, generate
 6401,  7601,   400
*Nset, nset=FASEI_SLAVE
    1,    2,    5,    6,   11,   12,   13,   14,   15,   16,   17,   18,   19,   20,   21,   22
   23,   24,   25,   26,   27,   28,   29,   30,   31,   32,   33,   34,   35,   36,   37,   38
   39,   40,   41,   42,   43,   44,   45,   46,   47,   48,   49,   50,   51,   52,   53,   54
   55,   56,   57,   58,   59,   60,   61,   62,   63,   64,   65,   66,   67,   68,   69,   70
   71,   72,   73,   74,   75,   76,   77,   78,   79,   80,   81,   82,   83,   84,   85,   86
   87,   88,   89,   90,   91,   92,   93,   94,   95,   96,   97,   98,   99,  100,  101,  102
  103,  104,  105,  106,  107,  108,  109,  110,  111,  112,  113,  114,  115,  116,  117,  118
  119,  120,  121,  122,  123,  124,  125,  126,  127,  128,  129,  130,  131,  132,  133,  134
  135,  136,  137,  138,  139,  140,  141,  142,  143,  144,  145,  146,  147,  148,  149,  150
  151,  152,  153,  154,  155,  156,  157,  158,  159,  160,  161,  162,  163,  164,  165,  166
  167,  168,  169,  170,  171,  172,  173,  174,  175,  176,  177,  178,  179,  180,  181,  182
  183,  184,  185,  186,  187,  188,  189,  190,  191,  192,  193,  194,  195,  196,  197,  198
  199,  200,  201,  202,  203,  204,  205,  206,  207,  208,  209,  210,  211,  212,  213,  214
  215,  216,  217,  218,  219,  220,  221,  222,  223,  224,  225,  226,  227,  228,  229,  230
  231,  232,  233,  234,  235,  236,  237,  238,  239,  240,  241,  242,  243,  244,  245,  246
  247,  248,  249,  250,  251,  252,  253,  254,  255,  256,  257,  258,  259,  260,  261,  262
  263,  264,  265,  266,  267,  268,  269,  270,  271,  272,  273,  274,  275,  276,  277,  278
  279,  280,  281,  282,  283,  284,  285,  286,  287,  288,  289,  290,  291,  292,  293,  294
  295,  296,  297,  298,  299,  300,  301,  302,  303,  304,  305,  306,  307,  308,  309,  310
  311,  312,  313,  314,  315,  316,  317,  318,  319,  320,  321,  322,  323,  324,  325,  326
** ... 106 like lines cut
*Elset, elset=FASEI_SLAVE, generate
 3201,  4800,     1
*Nset, nset=FASEI
    5,    6,    7,    8,    9,   10,  823,  824,  825,  826,  827,  828,  829,  830,  831,  832
  833,  834,  835,  836,  837,  838,  839,  840,  841,  842,  843,  844,  845,  846,  847,  848
  849,  850,  851,  852,  853,  854,  855,  856,  857,  858,  859,  860,  861,  862,  863,  864
  865,  866,  867,  868,  869,  870,  871,  872,  873,  874,  875,  876,  877,  878,  879,  880
  881,  882,  883,  884,  885,  886,  887,  888,  889,  890,  891,  892,  893,  894,  895,  896
  897,  898,  899,  900,  901,  902,  903,  904,  905,  906,  907,  908,  909,  910,  911,  912
  913,  914,  915,  916,  917,  918,  919,  920,  921,  922,  923,  924,  925,  926,  927,  928
  929,  930,  931,  932,  933,  934,  935,  936,  937,  938,  939,  940,  941,  942,  943,  944
  945,  946,  947,  948,  949,  950,  951,  952,  953,  954,  955,  956,  957,  958,  959,  960
  961,  962,  963,  964,  965,  966,  967,  968,  969,  970,  971,  972,  973,  974,  975,  976
  977,  978,  979,  980,  981,  982,  983,  984,  985,  986,  987,  988,  989,  990,  991,  992
  993,  994,  995,  996,  997,  998,  999, 1000, 1001, 1002, 1003, 1004, 1005, 1006, 1007, 1008
 1009, 1010, 1011, 1012, 1013, 1014, 1015, 1016, 1017, 1018, 1019, 1020, 1021, 1022, 1023, 1024
 1025, 1026, 1027, 1028, 1029, 1030, 1031, 1032, 1033, 1034, 1035, 1036, 1037, 1038, 1039, 1040
 1041, 1042, 1043, 1044, 1045, 1046, 1047, 1048, 1049, 1050, 1051, 1052, 1053, 1054, 1055, 1056
 1057, 1058, 1059, 1060, 1061, 1062, 1063, 1064, 1065, 1066, 1067, 1068, 1069, 1070, 1071, 1072
 1073, 1074, 1075, 1076, 1077, 1078, 1079, 1080, 1081, 1082, 1083, 1084, 1085, 1086, 1087, 1088
 1089, 1090, 1091, 1092, 1093, 1094, 1095, 1096, 1097, 1098, 1099, 1100, 1101, 1102, 1103, 1104
 1105, 1106, 1107, 1108, 1109, 1110, 1111, 1112, 1113, 1114, 1115, 1116, 1117, 1118, 1119, 1120
 1121, 1122, 1123, 1124, 1125, 1126, 1127, 1128, 1129, 1130, 1131, 1132, 1133, 1134, 1135, 1136
** ... 206 like lines cut
*Elset, elset=FASEI, generate
 4801,  8000,     1
*Nset, nset=L1-I
    1,    2,    3,    4,    5,    6,   11,   12,   13,   14,   15,   16,   17,   18,   19,   20
   21,   22,   23,   24,   25,   26,   27,   28,   29,   30,   31,   32,   33,   34,   35,   36
   37,   38,   39,   40,   41,   42,   43,   44,   45,   46,   47,   48,   49,   50,   51,   52
   53,   54,   55,   56,   57,   58,   59,   60,   61,   62,   63,   64,   65,   66,   67,   68
   69,   70,   71,   72,   73,   74,   75,   76,   77,   78,   79,   80,   81,   82,   83,   84
   85,   86,   87,   88,   89,   90,   91,   92,   93,   94,   95,   96,   97,   98,   99,  100
  101,  102,  103,  104,  105,  106,  107,  108,  109,  110,  111,  112,  113,  114,  115,  116
  117,  118,  119,  120,  121,  122,  123,  124,  125,  126,  127,  128,  129,  130,  131,  132
  133,  134,  135,  136,  137,  138,  139,  140,  141,  142,  143,  144,  145,  146,  147,  148
  149,  150,  151,  152,  153,  154,  155,  156,  157,  158,  159,  160,  161,  162,  163,  164
  165,  166,  167,  168,  169,  170,  171,  172,  173,  174,  175,  176,  177,  178,  179,  180
  181,  182,  183,  184,  185,  186,  187,  188,  189,  190,  191,  192,  193,  194,  195,  196
  197,  198,  199,  200,  201,  202,  203,  204,  205,  206,  207,  208,  209,  210,  211,  212
  213,  214,  215,  216,  217,  218,  219,  220,  221,  222,  223,  224,  225,  226,  227,  228
  229,  230,  231,  232,  233,  234,  235,  236,  237,  238,  239,  240,  241,  242,  243,  244
  245,  246,  247,  248,  249,  250,  251,  252,  253,  254,  255,  256,  257,  258,  259,  260
  261,  262,  263,  264,  265,  266,  267,  268,  269,  270,  271,  272,  273,  274,  275,  276
  277,  278,  279,  280,  281,  282,  283,  284,  285,  286,  287,  288,  289,  290,  291,  292
  293,  294,  295,  296,  297,  298,  299,  300,  301,  302,  303,  304,  305,  306,  307,  308
  309,  310,  311,  312,  313,  314,  315,  316,  317,  318,  319,  320,  321,  322,  323,  324
** ... 306 like lines cut
*Elset, elset=L1-I, generate
    1,  4800,     1
*Nset, nset=L1-I_ID
    5,    6,  823,  824,  825,  826,  827,  828,  829,  830,  831,  832,  833,  834,  835,  836
  837,  838,  839,  840,  841,  842,  843,  844,  845,  846,  847,  848,  849,  850,  851,  852
  853,  854,  855,  856,  857,  858,  859,  860,  861,  862,  863,  864,  865,  866,  867,  868
  869,  870,  871,  872,  873,  874,  875,  876,  877,  878,  879,  880,  881,  882,  883,  884
  885,  886,  887,  888,  889,  890,  891,  892,  893,  894,  895,  896,  897,  898,  899,  900
  901,  902,  903,  904,  905,  906,  907,  908,  909,  910,  911,  912,  913,  914,  915,  916
  917,  918,  919,  920,  921,  922,  923,  924,  925,  926,  927,  928,  929,  930,  931,  932
  933,  934,  935,  936,  937,  938,  939,  940,  941,  942,  943,  944,  945,  946,  947,  948
  949,  950,  951,  952,  953,  954,  955,  956,  957,  958,  959,  960,  961,  962,  963,  964
  965,  966,  967,  968,  969,  970,  971,  972,  973,  974,  975,  976,  977,  978,  979,  980
  981,  982,  983,  984,  985,  986,  987,  988,  989,  990,  991,  992,  993,  994,  995,  996
  997,  998,  999, 1000, 1001, 1002, 1003, 1004, 1005, 1006, 1007, 1008, 1009, 1010, 1011, 1012
 1013, 1014, 1015, 1016, 1017, 1018, 1019, 1020, 1021, 1022, 1023, 1024, 1025, 1026, 1027, 1028
 1029, 1030, 1031, 1032, 1033, 1034, 1035, 1036, 1037, 1038, 1039, 1040, 1041, 1042, 1043, 1044
 1045, 1046, 1047, 1048, 1049, 1050, 1051, 1052, 1053, 1054, 1055, 1056, 1057, 1058, 1059, 1060
 1061, 1062, 1063, 1064, 1065, 1066, 1067, 1068, 1069, 1070, 1071, 1072, 1073, 1074, 1075, 1076
 1077, 1078, 1079, 1080, 1081, 1082, 1083, 1084, 1085, 1086, 1087, 1088, 1089, 1090, 1091, 1092
 1093, 1094, 1095, 1096, 1097, 1098, 1099, 1100, 1101, 1102, 1103, 1104, 1105, 1106, 1107, 1108
 1109, 1110, 1111, 1112, 1113, 1114, 1115, 1116, 1117, 1118, 1119, 1120, 1121, 1122, 1123, 1124
 1125, 1126, 1127, 1128, 1129, 1130, 1131, 1132, 1133, 1134, 1135, 1136, 1137, 1138, 1139, 1140
** ... 6 like lines cut
*Elset, elset=L1-I_ID
 3201, 3202, 3203, 3204, 3205, 3206, 3207, 3208, 3209, 3210, 3211, 3212, 3213, 3214, 3215, 3216
 3217, 3218, 3219, 3220, 3221, 3222, 3223, 3224, 3225, 3226, 3227, 3228, 3229, 3230, 3231, 3232
 3233, 3234, 3235, 3236, 3237, 3238, 3239, 3240, 3241, 3242, 3243, 3244, 3245, 3246, 3247, 3248
 3249, 3250, 3251, 3252, 3253, 3254, 3255, 3256, 3257, 3258, 3259, 3260, 3261, 3262, 3263, 3264
 3265, 3266, 3267, 3268, 3269, 3270, 3271, 3272, 3273, 3274, 3275, 3276, 3277, 3278, 3279, 3280
 3281, 3282, 3283, 3284, 3285, 3286, 3287, 3288, 3289, 3290, 3291, 3292, 3293, 3294, 3295, 3296
 3297, 3298, 3299, 3300, 3301, 3302, 3303, 3304, 3305, 3306, 3307, 3308, 3309, 3310, 3311, 3312
 3313, 3314, 3315, 3316, 3317, 3318, 3319, 3320, 3321, 3322, 3323, 3324, 3325, 3326, 3327, 3328
 3329, 3330, 3331, 3332, 3333, 3334, 3335, 3336, 3337, 3338, 3339, 3340, 3341, 3342, 3343, 3344
 3345, 3346, 3347, 3348, 3349, 3350, 3351, 3352, 3353, 3354, 3355, 3356, 3357, 3358, 3359, 3360
 3361, 3362, 3363, 3364, 3365, 3366, 3367, 3368, 3369, 3370, 3371, 3372, 3373, 3374, 3375, 3376
 3377, 3378, 3379, 3380, 3381, 3382, 3383, 3384, 3385, 3386, 3387, 3388, 3389, 3390, 3391, 3392
 3393, 3394, 3395, 3396, 3397, 3398, 3399, 3400, 3401, 3402, 3403, 3404, 3405, 3406, 3407, 3408
 3409, 3410, 3411, 3412, 3413, 3414, 3415, 3416, 3417, 3418, 3419, 3420, 3421, 3422, 3423, 3424
 3425, 3426, 3427, 3428, 3429, 3430, 3431, 3432, 3433, 3434, 3435, 3436, 3437, 3438, 3439, 3440
 3441, 3442, 3443, 3444, 3445, 3446, 3447, 3448, 3449, 3450, 3451, 3452, 3453, 3454, 3455, 3456
 3457, 3458, 3459, 3460, 3461, 3462, 3463, 3464, 3465, 3466, 3467, 3468, 3469, 3470, 3471, 3472
 3473, 3474, 3475, 3476, 3477, 3478, 3479, 3480, 3481, 3482, 3483, 3484, 3485, 3486, 3487, 3488
 3489, 3490, 3491, 3492, 3493, 3494, 3495, 3496, 3497, 3498, 3499, 3500, 3501, 3502, 3503, 3504
 3505, 3506, 3507, 3508, 3509, 3510, 3511, 3512, 3513, 3514, 3515, 3516, 3517, 3518, 3519, 3520
** ... 30 like lines cut
*Nset, nset=L1-I_OD
   3,   4, 417, 418, 419, 420, 421, 422, 423, 424, 425, 426, 427, 428, 429, 430
 431, 432, 433, 434, 435, 436, 437, 438, 439, 440, 441, 442, 443, 444, 445, 446
 447, 448, 449, 450, 451, 452, 453, 454, 455, 456, 457, 458, 459, 460, 461, 462
 463, 464, 465, 466, 467, 468, 469, 470, 471, 472, 473, 474, 475, 476, 477, 478
 479, 480, 481, 482, 483, 484, 485, 486, 487, 488, 489, 490, 491, 492, 493, 494
 495, 496, 497, 498, 499, 500, 501, 502, 503, 504, 505, 506, 507, 508, 509, 510
 511, 512, 513, 514, 515, 516, 517, 518, 519, 520, 521, 522, 523, 524, 525, 526
 527, 528, 529, 530, 531, 532, 533, 534, 535, 536, 537, 538, 539, 540, 541, 542
 543, 544, 545, 546, 547, 548, 549, 550, 551, 552, 553, 554, 555, 556, 557, 558
 559, 560, 561, 562, 563, 564, 565, 566, 567, 568, 569, 570, 571, 572, 573, 574
 575, 576, 577, 578, 579, 580, 581, 582, 583, 584, 585, 586, 587, 588, 589, 590
 591, 592, 593, 594, 595, 596, 597, 598, 599, 600, 601, 602, 603, 604, 605, 606
 607, 608, 609, 610, 611, 612, 613, 614, 615, 616, 617, 618, 619, 620, 621, 622
 623, 624, 625, 626, 627, 628, 629, 630, 631, 632, 633, 634, 635, 636, 637, 638
 639, 640, 641, 642, 643, 644, 645, 646, 647, 648, 649, 650, 651, 652, 653, 654
 655, 656, 657, 658, 659, 660, 661, 662, 663, 664, 665, 666, 667, 668, 669, 670
 671, 672, 673, 674, 675, 676, 677, 678, 679, 680, 681, 682, 683, 684, 685, 686
 687, 688, 689, 690, 691, 692, 693, 694, 695, 696, 697, 698, 699, 700, 701, 702
 703, 704, 705, 706, 707, 708, 709, 710, 711, 712, 713, 714, 715, 716, 717, 718
 719, 720, 721, 722, 723, 724, 725, 726, 727, 728, 729, 730, 731, 732, 733, 734
** ... 6 like lines cut
*Elset, elset=L1-I_OD, generate
 2801,  3200,     1
*Nset, nset=L1-I_TOP
    1,    4,    5,  816,  817,  818,  819,  820,  821,  822, 1225, 1226, 1227
*Elset, elset=L1-I_TOP, generate
    1,  4401,   400
*Nset, nset=L1-I_BASE
    2,    3,    6,  410,  411,  412,  413,  414,  415,  416, 1222, 1223, 1224
*Elset, elset=L1-I_BASE, generate
  400,  4800,   400
*Nset, nset=FASEI_WELL
    5,    6,  823,  824,  825,  826,  827,  828,  829,  830,  831,  832,  833,  834,  835,  836
  837,  838,  839,  840,  841,  842,  843,  844,  845,  846,  847,  848,  849,  850,  851,  852
  853,  854,  855,  856,  857,  858,  859,  860,  861,  862,  863,  864,  865,  866,  867,  868
  869,  870,  871,  872,  873,  874,  875,  876,  877,  878,  879,  880,  881,  882,  883,  884
  885,  886,  887,  888,  889,  890,  891,  892,  893,  894,  895,  896,  897,  898,  899,  900
  901,  902,  903,  904,  905,  906,  907,  908,  909,  910,  911,  912,  913,  914,  915,  916
  917,  918,  919,  920,  921,  922,  923,  924,  925,  926,  927,  928,  929,  930,  931,  932
  933,  934,  935,  936,  937,  938,  939,  940,  941,  942,  943,  944,  945,  946,  947,  948
  949,  950,  951,  952,  953,  954,  955,  956,  957,  958,  959,  960,  961,  962,  963,  964
  965,  966,  967,  968,  969,  970,  971,  972,  973,  974,  975,  976,  977,  978,  979,  980
  981,  982,  983,  984,  985,  986,  987,  988,  989,  990,  991,  992,  993,  994,  995,  996
  997,  998,  999, 1000, 1001, 1002, 1003, 1004, 1005, 1006, 1007, 1008, 1009, 1010, 1011, 1012
 1013, 1014, 1015, 1016, 1017, 1018, 1019, 1020, 1021, 1022, 1023, 1024, 1025, 1026, 1027, 1028
 1029, 1030, 1031, 1032, 1033, 1034, 1035, 1036, 1037, 1038, 1039, 1040, 1041, 1042, 1043, 1044
 1045, 1046, 1047, 1048, 1049, 1050, 1051, 1052, 1053, 1054, 1055, 1056, 1057, 1058, 1059, 1060
 1061, 1062, 1063, 1064, 1065, 1066, 1067, 1068, 1069, 1070, 1071, 1072, 1073, 1074, 1075, 1076
 1077, 1078, 1079, 1080, 1081, 1082, 1083, 1084, 1085, 1086, 1087, 1088, 1089, 1090, 1091, 1092
 1093, 1094, 1095, 1096, 1097, 1098, 1099, 1100, 1101, 1102, 1103, 1104, 1105, 1106, 1107, 1108
 1109, 1110, 1111, 1112, 1113, 1114, 1115, 1116, 1117, 1118, 1119, 1120, 1121, 1122, 1123, 1124
 1125, 1126, 1127, 1128, 1129, 1130, 1131, 1132, 1133, 1134, 1135, 1136, 1137, 1138, 1139, 1140
** ... 6 like lines cut
*Elset, elset=FASEI_WELL
 3201, 3202, 3203, 3204, 3205, 3206, 3207, 3208, 3209, 3210, 3211, 3212, 3213, 3214, 3215, 3216
 3217, 3218, 3219, 3220, 3221, 3222, 3223, 3224, 3225, 3226, 3227, 3228, 3229, 3230, 3231, 3232
 3233, 3234, 3235, 3236, 3237, 3238, 3239, 3240, 3241, 3242, 3243, 3244, 3245, 3246, 3247, 3248
 3249, 3250, 3251, 3252, 3253, 3254, 3255, 3256, 3257, 3258, 3259, 3260, 3261, 3262, 3263, 3264
 3265, 3266, 3267, 3268, 3269, 3270, 3271, 3272, 3273, 3274, 3275, 3276, 3277, 3278, 3279, 3280
 3281, 3282, 3283, 3284, 3285, 3286, 3287, 3288, 3289, 3290, 3291, 3292, 3293, 3294, 3295, 3296
 3297, 3298, 3299, 3300, 3301, 3302, 3303, 3304, 3305, 3306, 3307, 3308, 3309, 3310, 3311, 3312
 3313, 3314, 3315, 3316, 3317, 3318, 3319, 3320, 3321, 3322, 3323, 3324, 3325, 3326, 3327, 3328
 3329, 3330, 3331, 3332, 3333, 3334, 3335, 3336, 3337, 3338, 3339, 3340, 3341, 3342, 3343, 3344
 3345, 3346, 3347, 3348, 3349, 3350, 3351, 3352, 3353, 3354, 3355, 3356, 3357, 3358, 3359, 3360
 3361, 3362, 3363, 3364, 3365, 3366, 3367, 3368, 3369, 3370, 3371, 3372, 3373, 3374, 3375, 3376
 3377, 3378, 3379, 3380, 3381, 3382, 3383, 3384, 3385, 3386, 3387, 3388, 3389, 3390, 3391, 3392
 3393, 3394, 3395, 3396, 3397, 3398, 3399, 3400, 3401, 3402, 3403, 3404, 3405, 3406, 3407, 3408
 3409, 3410, 3411, 3412, 3413, 3414, 3415, 3416, 3417, 3418, 3419, 3420, 3421, 3422, 3423, 3424
 3425, 3426, 3427, 3428, 3429, 3430, 3431, 3432, 3433, 3434, 3435, 3436, 3437, 3438, 3439, 3440
 3441, 3442, 3443, 3444, 3445, 3446, 3447, 3448, 3449, 3450, 3451, 3452, 3453, 3454, 3455, 3456
 3457, 3458, 3459, 3460, 3461, 3462, 3463, 3464, 3465, 3466, 3467, 3468, 3469, 3470, 3471, 3472
 3473, 3474, 3475, 3476, 3477, 3478, 3479, 3480, 3481, 3482, 3483, 3484, 3485, 3486, 3487, 3488
 3489, 3490, 3491, 3492, 3493, 3494, 3495, 3496, 3497, 3498, 3499, 3500, 3501, 3502, 3503, 3504
 3505, 3506, 3507, 3508, 3509, 3510, 3511, 3512, 3513, 3514, 3515, 3516, 3517, 3518, 3519, 3520
** ... 30 like lines cut
*Nset, nset=FASEI_WELL_CIMENTO_BASE
    5,    6,  823,  824,  825,  826,  827,  828,  829,  830,  831,  832,  833,  834,  835,  836
  837,  838,  839,  840,  841,  842,  843,  844,  845,  846,  847,  848,  849,  850,  851,  852
  853,  854,  855,  856,  857,  858,  859,  860,  861,  862,  863,  864,  865,  866,  867,  868
  869,  870,  871,  872,  873,  874,  875,  876,  877,  878,  879,  880,  881,  882,  883,  884
  885,  886,  887,  888,  889,  890,  891,  892,  893,  894,  895,  896,  897,  898,  899,  900
  901,  902,  903,  904,  905,  906,  907,  908,  909,  910,  911,  912,  913,  914,  915,  916
  917,  918,  919,  920,  921,  922,  923,  924,  925,  926,  927,  928,  929,  930,  931,  932
  933,  934,  935,  936,  937,  938,  939,  940,  941,  942,  943,  944,  945,  946,  947,  948
  949,  950,  951,  952,  953,  954,  955,  956,  957,  958,  959,  960,  961,  962,  963,  964
  965,  966,  967,  968,  969,  970,  971,  972,  973,  974,  975,  976,  977,  978,  979,  980
  981,  982,  983,  984,  985,  986,  987,  988,  989,  990,  991,  992,  993,  994,  995,  996
  997,  998,  999, 1000, 1001, 1002, 1003, 1004, 1005, 1006, 1007, 1008, 1009, 1010, 1011, 1012
 1013, 1014, 1015, 1016, 1017, 1018, 1019, 1020, 1021, 1022, 1023, 1024, 1025, 1026, 1027, 1028
 1029, 1030, 1031, 1032, 1033, 1034, 1035, 1036, 1037, 1038, 1039, 1040, 1041, 1042, 1043, 1044
 1045, 1046, 1047, 1048, 1049, 1050, 1051, 1052, 1053, 1054, 1055, 1056, 1057, 1058, 1059, 1060
 1061, 1062, 1063, 1064, 1065, 1066, 1067, 1068, 1069, 1070, 1071, 1072, 1073, 1074, 1075, 1076
 1077, 1078, 1079, 1080, 1081, 1082, 1083, 1084, 1085, 1086, 1087, 1088, 1089, 1090, 1091, 1092
 1093, 1094, 1095, 1096, 1097, 1098, 1099, 1100, 1101, 1102, 1103, 1104, 1105, 1106, 1107, 1108
 1109, 1110, 1111, 1112, 1113, 1114, 1115, 1116, 1117, 1118, 1119, 1120, 1121, 1122, 1123, 1124
 1125, 1126, 1127, 1128, 1129, 1130, 1131, 1132, 1133, 1134, 1135, 1136, 1137, 1138, 1139, 1140
** ... 6 like lines cut
*Elset, elset=FASEI_WELL_CIMENTO_BASE
 3201, 3202, 3203, 3204, 3205, 3206, 3207, 3208, 3209, 3210, 3211, 3212, 3213, 3214, 3215, 3216
 3217, 3218, 3219, 3220, 3221, 3222, 3223, 3224, 3225, 3226, 3227, 3228, 3229, 3230, 3231, 3232
 3233, 3234, 3235, 3236, 3237, 3238, 3239, 3240, 3241, 3242, 3243, 3244, 3245, 3246, 3247, 3248
 3249, 3250, 3251, 3252, 3253, 3254, 3255, 3256, 3257, 3258, 3259, 3260, 3261, 3262, 3263, 3264
 3265, 3266, 3267, 3268, 3269, 3270, 3271, 3272, 3273, 3274, 3275, 3276, 3277, 3278, 3279, 3280
 3281, 3282, 3283, 3284, 3285, 3286, 3287, 3288, 3289, 3290, 3291, 3292, 3293, 3294, 3295, 3296
 3297, 3298, 3299, 3300, 3301, 3302, 3303, 3304, 3305, 3306, 3307, 3308, 3309, 3310, 3311, 3312
 3313, 3314, 3315, 3316, 3317, 3318, 3319, 3320, 3321, 3322, 3323, 3324, 3325, 3326, 3327, 3328
 3329, 3330, 3331, 3332, 3333, 3334, 3335, 3336, 3337, 3338, 3339, 3340, 3341, 3342, 3343, 3344
 3345, 3346, 3347, 3348, 3349, 3350, 3351, 3352, 3353, 3354, 3355, 3356, 3357, 3358, 3359, 3360
 3361, 3362, 3363, 3364, 3365, 3366, 3367, 3368, 3369, 3370, 3371, 3372, 3373, 3374, 3375, 3376
 3377, 3378, 3379, 3380, 3381, 3382, 3383, 3384, 3385, 3386, 3387, 3388, 3389, 3390, 3391, 3392
 3393, 3394, 3395, 3396, 3397, 3398, 3399, 3400, 3401, 3402, 3403, 3404, 3405, 3406, 3407, 3408
 3409, 3410, 3411, 3412, 3413, 3414, 3415, 3416, 3417, 3418, 3419, 3420, 3421, 3422, 3423, 3424
 3425, 3426, 3427, 3428, 3429, 3430, 3431, 3432, 3433, 3434, 3435, 3436, 3437, 3438, 3439, 3440
 3441, 3442, 3443, 3444, 3445, 3446, 3447, 3448, 3449, 3450, 3451, 3452, 3453, 3454, 3455, 3456
 3457, 3458, 3459, 3460, 3461, 3462, 3463, 3464, 3465, 3466, 3467, 3468, 3469, 3470, 3471, 3472
 3473, 3474, 3475, 3476, 3477, 3478, 3479, 3480, 3481, 3482, 3483, 3484, 3485, 3486, 3487, 3488
 3489, 3490, 3491, 3492, 3493, 3494, 3495, 3496, 3497, 3498, 3499, 3500, 3501, 3502, 3503, 3504
 3505, 3506, 3507, 3508, 3509, 3510, 3511, 3512, 3513, 3514, 3515, 3516, 3517, 3518, 3519, 3520
** ... 30 like lines cut
*Nset, nset=FASEI_OPEN_WELL
    5,    6,  823,  824,  825,  826,  827,  828,  829,  830,  831,  832,  833,  834,  835,  836
  837,  838,  839,  840,  841,  842,  843,  844,  845,  846,  847,  848,  849,  850,  851,  852
  853,  854,  855,  856,  857,  858,  859,  860,  861,  862,  863,  864,  865,  866,  867,  868
  869,  870,  871,  872,  873,  874,  875,  876,  877,  878,  879,  880,  881,  882,  883,  884
  885,  886,  887,  888,  889,  890,  891,  892,  893,  894,  895,  896,  897,  898,  899,  900
  901,  902,  903,  904,  905,  906,  907,  908,  909,  910,  911,  912,  913,  914,  915,  916
  917,  918,  919,  920,  921,  922,  923,  924,  925,  926,  927,  928,  929,  930,  931,  932
  933,  934,  935,  936,  937,  938,  939,  940,  941,  942,  943,  944,  945,  946,  947,  948
  949,  950,  951,  952,  953,  954,  955,  956,  957,  958,  959,  960,  961,  962,  963,  964
  965,  966,  967,  968,  969,  970,  971,  972,  973,  974,  975,  976,  977,  978,  979,  980
  981,  982,  983,  984,  985,  986,  987,  988,  989,  990,  991,  992,  993,  994,  995,  996
  997,  998,  999, 1000, 1001, 1002, 1003, 1004, 1005, 1006, 1007, 1008, 1009, 1010, 1011, 1012
 1013, 1014, 1015, 1016, 1017, 1018, 1019, 1020, 1021, 1022, 1023, 1024, 1025, 1026, 1027, 1028
 1029, 1030, 1031, 1032, 1033, 1034, 1035, 1036, 1037, 1038, 1039, 1040, 1041, 1042, 1043, 1044
 1045, 1046, 1047, 1048, 1049, 1050, 1051, 1052, 1053, 1054, 1055, 1056, 1057, 1058, 1059, 1060
 1061, 1062, 1063, 1064, 1065, 1066, 1067, 1068, 1069, 1070, 1071, 1072, 1073, 1074, 1075, 1076
 1077, 1078, 1079, 1080, 1081, 1082, 1083, 1084, 1085, 1086, 1087, 1088, 1089, 1090, 1091, 1092
 1093, 1094, 1095, 1096, 1097, 1098, 1099, 1100, 1101, 1102, 1103, 1104, 1105, 1106, 1107, 1108
 1109, 1110, 1111, 1112, 1113, 1114, 1115, 1116, 1117, 1118, 1119, 1120, 1121, 1122, 1123, 1124
 1125, 1126, 1127, 1128, 1129, 1130, 1131, 1132, 1133, 1134, 1135, 1136, 1137, 1138, 1139, 1140
** ... 6 like lines cut
*Elset, elset=FASEI_OPEN_WELL
 3201, 3202, 3203, 3204, 3205, 3206, 3207, 3208, 3209, 3210, 3211, 3212, 3213, 3214, 3215, 3216
 3217, 3218, 3219, 3220, 3221, 3222, 3223, 3224, 3225, 3226, 3227, 3228, 3229, 3230, 3231, 3232
 3233, 3234, 3235, 3236, 3237, 3238, 3239, 3240, 3241, 3242, 3243, 3244, 3245, 3246, 3247, 3248
 3249, 3250, 3251, 3252, 3253, 3254, 3255, 3256, 3257, 3258, 3259, 3260, 3261, 3262, 3263, 3264
 3265, 3266, 3267, 3268, 3269, 3270, 3271, 3272, 3273, 3274, 3275, 3276, 3277, 3278, 3279, 3280
 3281, 3282, 3283, 3284, 3285, 3286, 3287, 3288, 3289, 3290, 3291, 3292, 3293, 3294, 3295, 3296
 3297, 3298, 3299, 3300, 3301, 3302, 3303, 3304, 3305, 3306, 3307, 3308, 3309, 3310, 3311, 3312
 3313, 3314, 3315, 3316, 3317, 3318, 3319, 3320, 3321, 3322, 3323, 3324, 3325, 3326, 3327, 3328
 3329, 3330, 3331, 3332, 3333, 3334, 3335, 3336, 3337, 3338, 3339, 3340, 3341, 3342, 3343, 3344
 3345, 3346, 3347, 3348, 3349, 3350, 3351, 3352, 3353, 3354, 3355, 3356, 3357, 3358, 3359, 3360
 3361, 3362, 3363, 3364, 3365, 3366, 3367, 3368, 3369, 3370, 3371, 3372, 3373, 3374, 3375, 3376
 3377, 3378, 3379, 3380, 3381, 3382, 3383, 3384, 3385, 3386, 3387, 3388, 3389, 3390, 3391, 3392
 3393, 3394, 3395, 3396, 3397, 3398, 3399, 3400, 3401, 3402, 3403, 3404, 3405, 3406, 3407, 3408
 3409, 3410, 3411, 3412, 3413, 3414, 3415, 3416, 3417, 3418, 3419, 3420, 3421, 3422, 3423, 3424
 3425, 3426, 3427, 3428, 3429, 3430, 3431, 3432, 3433, 3434, 3435, 3436, 3437, 3438, 3439, 3440
 3441, 3442, 3443, 3444, 3445, 3446, 3447, 3448, 3449, 3450, 3451, 3452, 3453, 3454, 3455, 3456
 3457, 3458, 3459, 3460, 3461, 3462, 3463, 3464, 3465, 3466, 3467, 3468, 3469, 3470, 3471, 3472
 3473, 3474, 3475, 3476, 3477, 3478, 3479, 3480, 3481, 3482, 3483, 3484, 3485, 3486, 3487, 3488
 3489, 3490, 3491, 3492, 3493, 3494, 3495, 3496, 3497, 3498, 3499, 3500, 3501, 3502, 3503, 3504
 3505, 3506, 3507, 3508, 3509, 3510, 3511, 3512, 3513, 3514, 3515, 3516, 3517, 3518, 3519, 3520
** ... 30 like lines cut
*Nset, nset=FASEI_COMPLETED_WELL
    9,   10, 1630, 1631, 1632, 1633, 1634, 1635, 1636, 1637, 1638, 1639, 1640, 1641, 1642, 1643
 1644, 1645, 1646, 1647, 1648, 1649, 1650, 1651, 1652, 1653, 1654, 1655, 1656, 1657, 1658, 1659
 1660, 1661, 1662, 1663, 1664, 1665, 1666, 1667, 1668, 1669, 1670, 1671, 1672, 1673, 1674, 1675
 1676, 1677, 1678, 1679, 1680, 1681, 1682, 1683, 1684, 1685, 1686, 1687, 1688, 1689, 1690, 1691
 1692, 1693, 1694, 1695, 1696, 1697, 1698, 1699, 1700, 1701, 1702, 1703, 1704, 1705, 1706, 1707
 1708, 1709, 1710, 1711, 1712, 1713, 1714, 1715, 1716, 1717, 1718, 1719, 1720, 1721, 1722, 1723
 1724, 1725, 1726, 1727, 1728, 1729, 1730, 1731, 1732, 1733, 1734, 1735, 1736, 1737, 1738, 1739
 1740, 1741, 1742, 1743, 1744, 1745, 1746, 1747, 1748, 1749, 1750, 1751, 1752, 1753, 1754, 1755
 1756, 1757, 1758, 1759, 1760, 1761, 1762, 1763, 1764, 1765, 1766, 1767, 1768, 1769, 1770, 1771
 1772, 1773, 1774, 1775, 1776, 1777, 1778, 1779, 1780, 1781, 1782, 1783, 1784, 1785, 1786, 1787
 1788, 1789, 1790, 1791, 1792, 1793, 1794, 1795, 1796, 1797, 1798, 1799, 1800, 1801, 1802, 1803
 1804, 1805, 1806, 1807, 1808, 1809, 1810, 1811, 1812, 1813, 1814, 1815, 1816, 1817, 1818, 1819
 1820, 1821, 1822, 1823, 1824, 1825, 1826, 1827, 1828, 1829, 1830, 1831, 1832, 1833, 1834, 1835
 1836, 1837, 1838, 1839, 1840, 1841, 1842, 1843, 1844, 1845, 1846, 1847, 1848, 1849, 1850, 1851
 1852, 1853, 1854, 1855, 1856, 1857, 1858, 1859, 1860, 1861, 1862, 1863, 1864, 1865, 1866, 1867
 1868, 1869, 1870, 1871, 1872, 1873, 1874, 1875, 1876, 1877, 1878, 1879, 1880, 1881, 1882, 1883
 1884, 1885, 1886, 1887, 1888, 1889, 1890, 1891, 1892, 1893, 1894, 1895, 1896, 1897, 1898, 1899
 1900, 1901, 1902, 1903, 1904, 1905, 1906, 1907, 1908, 1909, 1910, 1911, 1912, 1913, 1914, 1915
 1916, 1917, 1918, 1919, 1920, 1921, 1922, 1923, 1924, 1925, 1926, 1927, 1928, 1929, 1930, 1931
 1932, 1933, 1934, 1935, 1936, 1937, 1938, 1939, 1940, 1941, 1942, 1943, 1944, 1945, 1946, 1947
** ... 6 like lines cut
*Elset, elset=FASEI_COMPLETED_WELL, generate
 6001,  6400,     1
*Nset, nset=REFPT
 8422,
*Nset, nset=ROCK_OUTPUT
    1,    2,    5,    6,   11,   12,   13,   14,   15,   16,   17,   18,   19,   20,   21,   22
   23,   24,   25,   26,   27,   28,   29,   30,   31,   32,   33,   34,   35,   36,   37,   38
   39,   40,   41,   42,   43,   44,   45,   46,   47,   48,   49,   50,   51,   52,   53,   54
   55,   56,   57,   58,   59,   60,   61,   62,   63,   64,   65,   66,   67,   68,   69,   70
   71,   72,   73,   74,   75,   76,   77,   78,   79,   80,   81,   82,   83,   84,   85,   86
   87,   88,   89,   90,   91,   92,   93,   94,   95,   96,   97,   98,   99,  100,  101,  102
  103,  104,  105,  106,  107,  108,  109,  110,  111,  112,  113,  114,  115,  116,  117,  118
  119,  120,  121,  122,  123,  124,  125,  126,  127,  128,  129,  130,  131,  132,  133,  134
  135,  136,  137,  138,  139,  140,  141,  142,  143,  144,  145,  146,  147,  148,  149,  150
  151,  152,  153,  154,  155,  156,  157,  158,  159,  160,  161,  162,  163,  164,  165,  166
  167,  168,  169,  170,  171,  172,  173,  174,  175,  176,  177,  178,  179,  180,  181,  182
  183,  184,  185,  186,  187,  188,  189,  190,  191,  192,  193,  194,  195,  196,  197,  198
  199,  200,  201,  202,  203,  204,  205,  206,  207,  208,  209,  210,  211,  212,  213,  214
  215,  216,  217,  218,  219,  220,  221,  222,  223,  224,  225,  226,  227,  228,  229,  230
  231,  232,  233,  234,  235,  236,  237,  238,  239,  240,  241,  242,  243,  244,  245,  246
  247,  248,  249,  250,  251,  252,  253,  254,  255,  256,  257,  258,  259,  260,  261,  262
  263,  264,  265,  266,  267,  268,  269,  270,  271,  272,  273,  274,  275,  276,  277,  278
  279,  280,  281,  282,  283,  284,  285,  286,  287,  288,  289,  290,  291,  292,  293,  294
  295,  296,  297,  298,  299,  300,  301,  302,  303,  304,  305,  306,  307,  308,  309,  310
  311,  312,  313,  314,  315,  316,  317,  318,  319,  320,  321,  322,  323,  324,  325,  326
** ... 106 like lines cut
*Elset, elset=ROCK_OUTPUT, generate
 3201,  4800,     1
*Nset, nset=ALLROCK
    1,    2,    3,    4,    5,    6,   11,   12,   13,   14,   15,   16,   17,   18,   19,   20
   21,   22,   23,   24,   25,   26,   27,   28,   29,   30,   31,   32,   33,   34,   35,   36
   37,   38,   39,   40,   41,   42,   43,   44,   45,   46,   47,   48,   49,   50,   51,   52
   53,   54,   55,   56,   57,   58,   59,   60,   61,   62,   63,   64,   65,   66,   67,   68
   69,   70,   71,   72,   73,   74,   75,   76,   77,   78,   79,   80,   81,   82,   83,   84
   85,   86,   87,   88,   89,   90,   91,   92,   93,   94,   95,   96,   97,   98,   99,  100
  101,  102,  103,  104,  105,  106,  107,  108,  109,  110,  111,  112,  113,  114,  115,  116
  117,  118,  119,  120,  121,  122,  123,  124,  125,  126,  127,  128,  129,  130,  131,  132
  133,  134,  135,  136,  137,  138,  139,  140,  141,  142,  143,  144,  145,  146,  147,  148
  149,  150,  151,  152,  153,  154,  155,  156,  157,  158,  159,  160,  161,  162,  163,  164
  165,  166,  167,  168,  169,  170,  171,  172,  173,  174,  175,  176,  177,  178,  179,  180
  181,  182,  183,  184,  185,  186,  187,  188,  189,  190,  191,  192,  193,  194,  195,  196
  197,  198,  199,  200,  201,  202,  203,  204,  205,  206,  207,  208,  209,  210,  211,  212
  213,  214,  215,  216,  217,  218,  219,  220,  221,  222,  223,  224,  225,  226,  227,  228
  229,  230,  231,  232,  233,  234,  235,  236,  237,  238,  239,  240,  241,  242,  243,  244
  245,  246,  247,  248,  249,  250,  251,  252,  253,  254,  255,  256,  257,  258,  259,  260
  261,  262,  263,  264,  265,  266,  267,  268,  269,  270,  271,  272,  273,  274,  275,  276
  277,  278,  279,  280,  281,  282,  283,  284,  285,  286,  287,  288,  289,  290,  291,  292
  293,  294,  295,  296,  297,  298,  299,  300,  301,  302,  303,  304,  305,  306,  307,  308
  309,  310,  311,  312,  313,  314,  315,  316,  317,  318,  319,  320,  321,  322,  323,  324
** ... 306 like lines cut
*Elset, elset=ALLROCK, generate
    1,  4800,     1
*Elset, elset=_FASEI_REV_S1, internal, generate
 4801,  5200,     1
*Elset, elset=_FASEI_REV_S2, internal, generate
 5200,  6400,   400
*Elset, elset=_FASEI_REV_S3, internal, generate
 6001,  6400,     1
*Elset, elset=_FASEI_REV_S4, internal, generate
 4801,  6001,   400
*Surface, type=ELEMENT, name=FASEI_REV
_FASEI_REV_S1, S1
_FASEI_REV_S2, S2
_FASEI_REV_S4, S4
_FASEI_REV_S3, S3
*Elset, elset=_FASEI_ANNULAR_S1, internal
 3201, 3202, 3203, 3204, 3205, 3206, 3207, 3208, 3209, 3210, 3211, 3212, 3213, 3214, 3215, 3216
 3217, 3218, 3219, 3220, 3221, 3222, 3223, 3224, 3225, 3226, 3227, 3228, 3229, 3230, 3231, 3232
 3233, 3234, 3235, 3236, 3237, 3238, 3239, 3240, 3241, 3242, 3243, 3244, 3245, 3246, 3247, 3248
 3249, 3250, 3251, 3252, 3253, 3254, 3255, 3256, 3257, 3258, 3259, 3260, 3261, 3262, 3263, 3264
 3265, 3266, 3267, 3268, 3269, 3270, 3271, 3272, 3273, 3274, 3275, 3276, 3277, 3278, 3279, 3280
 3281, 3282, 3283, 3284, 3285, 3286, 3287, 3288, 3289, 3290, 3291, 3292, 3293, 3294, 3295, 3296
 3297, 3298, 3299, 3300, 3301, 3302, 3303, 3304, 3305, 3306, 3307, 3308, 3309, 3310, 3311, 3312
 3313, 3314, 3315, 3316, 3317, 3318, 3319, 3320, 3321, 3322, 3323, 3324, 3325, 3326, 3327, 3328
 3329, 3330, 3331, 3332, 3333, 3334, 3335, 3336, 3337, 3338, 3339, 3340, 3341, 3342, 3343, 3344
 3345, 3346, 3347, 3348, 3349, 3350, 3351, 3352, 3353, 3354, 3355, 3356, 3357, 3358, 3359, 3360
 3361, 3362, 3363, 3364, 3365, 3366, 3367, 3368, 3369, 3370, 3371, 3372, 3373, 3374, 3375, 3376
 3377, 3378, 3379, 3380, 3381, 3382, 3383, 3384, 3385, 3386, 3387, 3388, 3389, 3390, 3391, 3392
 3393, 3394, 3395, 3396, 3397, 3398, 3399, 3400, 3401, 3402, 3403, 3404, 3405, 3406, 3407, 3408
 3409, 3410, 3411, 3412, 3413, 3414, 3415, 3416, 3417, 3418, 3419, 3420, 3421, 3422, 3423, 3424
 3425, 3426, 3427, 3428, 3429, 3430, 3431, 3432, 3433, 3434, 3435, 3436, 3437, 3438, 3439, 3440
 3441, 3442, 3443, 3444, 3445, 3446, 3447, 3448, 3449, 3450, 3451, 3452, 3453, 3454, 3455, 3456
 3457, 3458, 3459, 3460, 3461, 3462, 3463, 3464, 3465, 3466, 3467, 3468, 3469, 3470, 3471, 3472
 3473, 3474, 3475, 3476, 3477, 3478, 3479, 3480, 3481, 3482, 3483, 3484, 3485, 3486, 3487, 3488
 3489, 3490, 3491, 3492, 3493, 3494, 3495, 3496, 3497, 3498, 3499, 3500, 3501, 3502, 3503, 3504
 3505, 3506, 3507, 3508, 3509, 3510, 3511, 3512, 3513, 3514, 3515, 3516, 3517, 3518, 3519, 3520
** ... 30 like lines cut
*Elset, elset=_FASEI_ANNULAR_S2, internal, generate
 6800,  8000,   400
*Elset, elset=_FASEI_ANNULAR_S4, internal, generate
 6401,  7601,   400
*Surface, type=ELEMENT, name=FASEI_ANNULAR
_FASEI_ANNULAR_S1, S1
_FASEI_ANNULAR_S2, S2
_FASEI_ANNULAR_S4, S4
*Elset, elset=_FASEI_FLUIDO_S1, internal
 3201, 3202, 3203, 3204, 3205, 3206, 3207, 3208, 3209, 3210, 3211, 3212, 3213, 3214, 3215, 3216
 3217, 3218, 3219, 3220, 3221, 3222, 3223, 3224, 3225, 3226, 3227, 3228, 3229, 3230, 3231, 3232
 3233, 3234, 3235, 3236, 3237, 3238, 3239, 3240, 3241, 3242, 3243, 3244, 3245, 3246, 3247, 3248
 3249, 3250, 3251, 3252, 3253, 3254, 3255, 3256, 3257, 3258, 3259, 3260, 3261, 3262, 3263, 3264
 3265, 3266, 3267, 3268, 3269, 3270, 3271, 3272, 3273, 3274, 3275, 3276, 3277, 3278, 3279, 3280
 3281, 3282, 3283, 3284, 3285, 3286, 3287, 3288, 3289, 3290, 3291, 3292, 3293, 3294, 3295, 3296
 3297, 3298, 3299, 3300, 3301, 3302, 3303, 3304, 3305, 3306, 3307, 3308, 3309, 3310, 3311, 3312
 3313, 3314, 3315, 3316, 3317, 3318, 3319, 3320, 3321, 3322, 3323, 3324, 3325, 3326, 3327, 3328
 3329, 3330, 3331, 3332, 3333, 3334, 3335, 3336, 3337, 3338, 3339, 3340, 3341, 3342, 3343, 3344
 3345, 3346, 3347, 3348, 3349, 3350, 3351, 3352, 3353, 3354, 3355, 3356, 3357, 3358, 3359, 3360
 3361, 3362, 3363, 3364, 3365, 3366, 3367, 3368, 3369, 3370, 3371, 3372, 3373, 3374, 3375, 3376
 3377, 3378, 3379, 3380, 3381, 3382, 3383, 3384, 3385, 3386, 3387, 3388, 3389, 3390, 3391, 3392
 3393, 3394, 3395, 3396, 3397, 3398, 3399, 3400, 3401, 3402, 3403, 3404, 3405, 3406, 3407, 3408
 3409, 3410, 3411, 3412, 3413, 3414, 3415, 3416, 3417, 3418, 3419, 3420, 3421, 3422, 3423, 3424
 3425, 3426, 3427, 3428, 3429, 3430, 3431, 3432, 3433, 3434, 3435, 3436, 3437, 3438, 3439, 3440
 3441, 3442, 3443, 3444, 3445, 3446, 3447, 3448, 3449, 3450, 3451, 3452, 3453, 3454, 3455, 3456
 3457, 3458, 3459, 3460, 3461, 3462, 3463, 3464, 3465, 3466, 3467, 3468, 3469, 3470, 3471, 3472
 3473, 3474, 3475, 3476, 3477, 3478, 3479, 3480, 3481, 3482, 3483, 3484, 3485, 3486, 3487, 3488
 3489, 3490, 3491, 3492, 3493, 3494, 3495, 3496, 3497, 3498, 3499, 3500, 3501, 3502, 3503, 3504
 3505, 3506, 3507, 3508, 3509, 3510, 3511, 3512, 3513, 3514, 3515, 3516, 3517, 3518, 3519, 3520
** ... 30 like lines cut
*Surface, type=ELEMENT, name=FASEI_FLUIDO
_FASEI_FLUIDO_S1, S1
*Elset, elset=_FASEI_MASTER_S1, internal, generate
 4801,  5200,     1
*Surface, type=ELEMENT, name=FASEI_MASTER
_FASEI_MASTER_S1, S1
*Elset, elset=_FASEI_WELL_S1, internal, generate
 3201,  3600,     1
*Surface, type=ELEMENT, name=FASEI_WELL
_FASEI_WELL_S1, S1
*Elset, elset=_FASEI_OPEN_WELL_S1, internal, generate
 3201,  3600,     1
*Surface, type=ELEMENT, name=FASEI_OPEN_WELL
_FASEI_OPEN_WELL_S1, S1
*Elset, elset=_FASEI_COMPLETED_WELL_S3, internal, generate
 6001,  6400,     1
*Surface, type=ELEMENT, name=FASEI_COMPLETED_WELL
_FASEI_COMPLETED_WELL_S3, S3
** Section: L1-I-HALITA
*Solid Section, elset=L1-I, material=L1-I-HALITA
,
** Section: VM11013CRSS
*Solid Section, elset=FASEI_REV, material=VM11013CRSS
,
** Section: FLUIDO
*Solid Section, elset=FASEI_FLUIDO, material=FLUIDO
,
** Block added by user *******
** DUMMY COPY OF FASEI
*Elcopy, old set=FASEI, new set = _dummy1, element shift=900000, shift nodes=0
*Elset, elset= DUMMY_FASEI 
_dummy1
** Section: DUMMY_FASEI
 *Solid Section, elset=DUMMY_FASEI, material=FLUIDO
,
******************************
*End Instance
**  
*Nset, nset=L1-I_EQ1_N1, instance=HydraPartInstance
 823,
*Nset, nset=L1-I_EQ1_N2, instance=HydraPartInstance
 824, 825
*Nset, nset=L1-I_EQ2_N1, instance=HydraPartInstance
 1221,
*Nset, nset=L1-I_EQ2_N2, instance=HydraPartInstance
 1219, 1220
*Surface, type=NODE, name=HydraPartInstance_FASEI_SLAVE_CNS_, internal
HydraPartInstance.FASEI_SLAVE, 1.
** Constraint: L1-I_EQ1
*Equation
2
L1-I_EQ1_N2, 1, 1.
L1-I_EQ1_N1, 1, -1.
** Constraint: L1-I_EQ2
*Equation
2
L1-I_EQ2_N2, 1, 1.
L1-I_EQ2_N1, 1, -1.
*End Assembly
** 
** MATERIALS
** 
*Material, name=FLUIDO
*Conductivity
 0.702,
*Density
1.,
*Elastic
10000.,0.
*Specific Heat
2060.,
*Material, name=L1-I-HALITA
*Conductivity
 5.55,
** Block replaced by user ****
*Creep, law=DOUBLE POWER
0.0077864000,6042.9046228220,2.9400000000,0.0076093000,6042.9046228220,8.1500000000,10300006.1216400005
******************************
*Density
 3357.36,
*Elastic
 2.04e+10, 0.36
*Specific Heat
 0.209946,
*Material, name=VM11013CRSS
*Conductivity
 45.3452,
*Density
7950.,
*Elastic
 2.06843e+11, 0.3
*Plastic
 7.58424e+08,     0., 273.15
 7.58424e+08,   0.25, 273.15
 7.56376e+08,     0., 298.15
 7.56376e+08,   0.25, 298.15
  7.2566e+08,     0., 373.15
  7.2566e+08,   0.25, 373.15
 7.05182e+08,     0., 423.15
 7.05182e+08,   0.25, 423.15
 6.84705e+08,     0., 473.15
 6.84705e+08,   0.25, 473.15
 6.64227e+08,     0., 523.15
 6.64227e+08,   0.25, 523.15
*Specific Heat
 342.219,
** 
** INTERACTION PROPERTIES
** 
*Surface Interaction, name=C_FASEI
1.,
*Friction, slip tolerance=0.005
 0.5,
*Surface Behavior, pressure-overclosure=HARD
*Time Points, name=timePoint
1., 3600., 7200., 14400., 28800., 57600., 86400., 172800.
345600., 691200., 1.3824e+06, 2.7648e+06, 5.5296e+06, 1.10592e+07, 2.21184e+07, 3.1536e+07
6.3072e+07, 1.26144e+08, 2.52288e+08, 5.04576e+08, 9.4608e+08
** 
** PHYSICAL CONSTANTS
** 
*Physical Constants, absolute zero=0.
** 
** BOUNDARY CONDITIONS
** 
** Name: FIX_FASEI_WELL Type: Symmetry/Antisymmetry/Encastre
*Boundary
HydraPartInstance.FASEI_WELL_CIMENTO_BASE, XSYMM
** Name: PIN_FASEI Type: Symmetry/Antisymmetry/Encastre
*Boundary
HydraPartInstance.FASEI_REV, PINNED
** Name: XSYM_ROCK_BC Type: Symmetry/Antisymmetry/Encastre
*Boundary
HydraPartInstance.ROCK_BC, XSYMM
** Name: YSYM_BASE Type: Symmetry/Antisymmetry/Encastre
*Boundary
HydraPartInstance.YSYM_BASE, YSYMM
** Name: YSYM_TOP Type: Symmetry/Antisymmetry/Encastre
*Boundary
HydraPartInstance.YSYM_TOP, YSYMM
** 
** PREDEFINED FIELDS
** 
** Name: S_FASEI_REV   Type: Geostatic stress
*Initial Conditions, type=STRESS, GEOSTATIC
HydraPartInstance.FASEI_REV, 1.39093e+08, -2000., -1.6886e+07, -4000., 0., 0.
** Name: S_L1-I   Type: Geostatic stress
*Initial Conditions, type=STRESS, GEOSTATIC
HydraPartInstance.L1-I, -5.45365e+07, -3700., -6.44172e+07, -4000., 1., 1.
** 
** INTERACTIONS
** 
** Interaction: C_FASEI
*Contact Pair, interaction=C_FASEI, type=SURFACE TO SURFACE
HydraPartInstance_FASEI_SLAVE_CNS_, HydraPartInstance.FASEI_MASTER
** ----------------------------------------------------------------
** 
** STEP: Geostatic
** 
*Step, name=Geostatic, nlgeom=YES
*Geostatic
** 
** LOADS
** 
** Name: GRAVITY   Type: Gravity
*Dload, op=NEW
, GRAV, 9.81, , -1.
** 
** INTERACTIONS
** 
** Interaction: C_FASEI
*Model Change, type=CONTACT PAIR, remove
HydraPartInstance_FASEI_SLAVE_CNS_, HydraPartInstance.FASEI_MASTER
** Interaction: MC_FASEI_FLUIDO
*Model Change, remove
HydraPartInstance.FASEI_FLUIDO, 
** Interaction: MC_FASEI_REV
*Model Change, remove
HydraPartInstance.FASEI_REV, 
** 
** CONTROLS
** 
*Controls, reset
*Controls, parameters=field, field=displacement
5e-05, , , , , , , 
*Controls, parameters=field, field=rotation
5e-05, , , , , , , 
** 
** OUTPUT REQUESTS
** 
*Restart, write, frequency=0
** 
** FIELD OUTPUT: FASEI_REV
** 
*Output, field
*Node Output, nset=HydraPartInstance.FASEI_REV
NT, U
*Element Output, elset=HydraPartInstance.FASEI_REV, directions=YES
E, MISES, PE, S, PEEQ
** 
** FIELD OUTPUT: ROCK_OUTPUT
** 
*Node Output, nset=HydraPartInstance.ROCK_OUTPUT
U, 
*Element Output, elset=HydraPartInstance.ROCK_OUTPUT, directions=YES
TEMP, 
*Output, history, frequency=0
*End Step
** ----------------------------------------------------------------
** 
** STEP: Transition
** 
*Step, name=Transition, nlgeom=YES
*Static
1., 2., 2e-05, 2.
** 
** LOADS
** 
** Name: GRAVITY   Type: Gravity
*Dload, op=NEW
, GRAV, 9.81, , -1.
** 
** OUTPUT REQUESTS
** 
*Restart, write, frequency=0
** 
** FIELD OUTPUT: FASEI_REV
** 
*Output, field, time points=timePoint
*Node Output, nset=HydraPartInstance.FASEI_REV
NT, U
*Element Output, elset=HydraPartInstance.FASEI_REV, directions=YES
E, MISES, PE, S, PEEQ
** 
** FIELD OUTPUT: ROCK_OUTPUT
** 
*Node Output, nset=HydraPartInstance.ROCK_OUTPUT
U, 
*Element Output, elset=HydraPartInstance.ROCK_OUTPUT, directions=YES
TEMP, 
*Output, history, frequency=0
*End Step
** ----------------------------------------------------------------
** 
** STEP: TempDefine
** 
*Step, name=TempDefine, nlgeom=YES
*Static
1., 3., 3e-05, 3.
** 
** LOADS
** 
** Name: GRAVITY   Type: Gravity
*Dload, op=NEW
, GRAV, 9.81, , -1.
** 
** PREDEFINED FIELDS
** 
** Name: NT_FASEI   Type: Temperature Using Field: Geotermico
*Temperature
HydraPartInstance.5, 337.527
HydraPartInstance.6, 348.097
HydraPartInstance.7, 348.097
HydraPartInstance.8, 337.527
HydraPartInstance.9, 337.527
HydraPartInstance.10, 348.097
HydraPartInstance.823, 337.527
HydraPartInstance.824, 337.553
HydraPartInstance.825, 337.58
HydraPartInstance.826, 337.606
HydraPartInstance.827, 337.633
HydraPartInstance.828, 337.66
HydraPartInstance.829, 337.686
HydraPartInstance.830, 337.713
HydraPartInstance.831, 337.74
HydraPartInstance.832, 337.766
HydraPartInstance.833, 337.793
HydraPartInstance.834, 337.82
HydraPartInstance.835, 337.846
HydraPartInstance.836, 337.873
** ... 3589 like lines cut
** Name: NT_FASEI_ID   Type: Temperature Using Field: Geotermico
*Temperature
HydraPartInstance.9, 337.527
HydraPartInstance.10, 348.097
HydraPartInstance.1630, 337.527
HydraPartInstance.1631, 337.553
HydraPartInstance.1632, 337.58
HydraPartInstance.1633, 337.607
HydraPartInstance.1634, 337.633
HydraPartInstance.1635, 337.66
HydraPartInstance.1636, 337.686
HydraPartInstance.1637, 337.713
HydraPartInstance.1638, 337.74
HydraPartInstance.1639, 337.766
HydraPartInstance.1640, 337.793
HydraPartInstance.1641, 337.82
HydraPartInstance.1642, 337.846
HydraPartInstance.1643, 337.873
HydraPartInstance.1644, 337.899
HydraPartInstance.1645, 337.926
HydraPartInstance.1646, 337.953
HydraPartInstance.1647, 337.979
** ... 381 like lines cut
** Name: NT_L1-I   Type: Temperature Using Field: NT_L1-I
*Temperature
HydraPartInstance.1, 337.5
HydraPartInstance.2, 348.15
HydraPartInstance.3, 348.15
HydraPartInstance.4, 337.5
HydraPartInstance.5, 337.5
HydraPartInstance.6, 348.15
HydraPartInstance.11, 337.527
HydraPartInstance.12, 337.553
HydraPartInstance.13, 337.58
HydraPartInstance.14, 337.607
HydraPartInstance.15, 337.633
HydraPartInstance.16, 337.66
HydraPartInstance.17, 337.686
HydraPartInstance.18, 337.713
HydraPartInstance.19, 337.74
HydraPartInstance.20, 337.766
HydraPartInstance.21, 337.793
HydraPartInstance.22, 337.82
HydraPartInstance.23, 337.846
HydraPartInstance.24, 337.873
** ... 5193 like lines cut
** Name: NT_L1-I_OD   Type: Temperature Using Field: NT_L1-I
*Temperature
HydraPartInstance.3, 348.15
HydraPartInstance.4, 337.5
HydraPartInstance.417, 348.123
HydraPartInstance.418, 348.097
HydraPartInstance.419, 348.07
HydraPartInstance.420, 348.043
HydraPartInstance.421, 348.017
HydraPartInstance.422, 347.99
HydraPartInstance.423, 347.964
HydraPartInstance.424, 347.937
HydraPartInstance.425, 347.91
HydraPartInstance.426, 347.884
HydraPartInstance.427, 347.857
HydraPartInstance.428, 347.831
HydraPartInstance.429, 347.804
HydraPartInstance.430, 347.777
HydraPartInstance.431, 347.751
HydraPartInstance.432, 347.724
HydraPartInstance.433, 347.697
HydraPartInstance.434, 347.671
** ... 381 like lines cut
** 
** OUTPUT REQUESTS
** 
*Restart, write, frequency=0
** 
** FIELD OUTPUT: FASEI_REV
** 
*Output, field, time points=timePoint
*Node Output, nset=HydraPartInstance.FASEI_REV
NT, U
*Element Output, elset=HydraPartInstance.FASEI_REV, directions=YES
E, MISES, PE, S, PEEQ
** 
** FIELD OUTPUT: ROCK_OUTPUT
** 
*Node Output, nset=HydraPartInstance.ROCK_OUTPUT
U, 
*Element Output, elset=HydraPartInstance.ROCK_OUTPUT, directions=YES
TEMP, 
*Output, history, frequency=0
*End Step
** ----------------------------------------------------------------
** 
** STEP: Perf_10_375
** 
*Step, name=Perf_10_375, nlgeom=YES
*Static
1., 1., 1e-15, 1.
** 
** BOUNDARY CONDITIONS
** 
** Name: FIX_FASEI_WELL Type: Symmetry/Antisymmetry/Encastre
*Boundary, op=NEW
** Name: PIN_FASEI Type: Symmetry/Antisymmetry/Encastre
*Boundary, op=NEW
HydraPartInstance.FASEI_REV, PINNED
** Name: XSYM_ROCK_BC Type: Symmetry/Antisymmetry/Encastre
*Boundary, op=NEW
HydraPartInstance.ROCK_BC, XSYMM
** Name: YSYM_BASE Type: Symmetry/Antisymmetry/Encastre
*Boundary, op=NEW
HydraPartInstance.YSYM_BASE, YSYMM
** Name: YSYM_TOP Type: Symmetry/Antisymmetry/Encastre
*Boundary, op=NEW
HydraPartInstance.YSYM_TOP, YSYMM
** 
** LOADS
** 
** Name: GRAVITY   Type: Gravity
*Dload, op=NEW
, GRAV, 9.81, , -1.
** Name: P_FASEI_OPEN_WELL   Type: Pressure Using Field: P_FASEI_OPEN_WELL
*Dload, op=NEW
HydraPartInstance.3201, P1, 3.69731e+07
HydraPartInstance.3202, P1, 3.69806e+07
HydraPartInstance.3203, P1, 3.69881e+07
HydraPartInstance.3204, P1, 3.69956e+07
HydraPartInstance.3205, P1, 3.70031e+07
HydraPartInstance.3206, P1, 3.70106e+07
HydraPartInstance.3207, P1, 3.70181e+07
HydraPartInstance.3208, P1, 3.70256e+07
HydraPartInstance.3209, P1, 3.70331e+07
HydraPartInstance.3210, P1, 3.70406e+07
HydraPartInstance.3211, P1, 3.70481e+07
HydraPartInstance.3212, P1, 3.70556e+07
HydraPartInstance.3213, P1, 3.70631e+07
HydraPartInstance.3214, P1, 3.70706e+07
HydraPartInstance.3215, P1, 3.7078e+07
HydraPartInstance.3216, P1, 3.70855e+07
HydraPartInstance.3217, P1, 3.7093e+07
HydraPartInstance.3218, P1, 3.71005e+07
HydraPartInstance.3219, P1, 3.7108e+07
HydraPartInstance.3220, P1, 3.71155e+07
** ... 380 like lines cut
** 
** OUTPUT REQUESTS
** 
*Restart, write, frequency=0
** 
** FIELD OUTPUT: FASEI_REV
** 
*Output, field, time points=timePoint
*Node Output, nset=HydraPartInstance.FASEI_REV
NT, U
*Element Output, elset=HydraPartInstance.FASEI_REV, directions=YES
E, MISES, PE, S, PEEQ
** 
** FIELD OUTPUT: ROCK_OUTPUT
** 
*Node Output, nset=HydraPartInstance.ROCK_OUTPUT
U, 
*Element Output, elset=HydraPartInstance.ROCK_OUTPUT, directions=YES
TEMP, 
*Output, history, frequency=0
*End Step
** ----------------------------------------------------------------
** 
** STEP: Perf_10_375_Creep
** 
*Step, name=Perf_10_375_Creep, nlgeom=YES, inc=1000000
*Visco, cetol=0.01
1., 172800., 1e-15, 172800.
** 
** LOADS
** 
** Name: GRAVITY   Type: Gravity
*Dload, op=NEW
, GRAV, 9.81, , -1.
** Name: P_FASEI_OPEN_WELL   Type: Pressure Using Field: P_FASEI_OPEN_WELL
*Dload, op=NEW
HydraPartInstance.3201, P1, 3.69731e+07
HydraPartInstance.3202, P1, 3.69806e+07
HydraPartInstance.3203, P1, 3.69881e+07
HydraPartInstance.3204, P1, 3.69956e+07
HydraPartInstance.3205, P1, 3.70031e+07
HydraPartInstance.3206, P1, 3.70106e+07
HydraPartInstance.3207, P1, 3.70181e+07
HydraPartInstance.3208, P1, 3.70256e+07
HydraPartInstance.3209, P1, 3.70331e+07
HydraPartInstance.3210, P1, 3.70406e+07
HydraPartInstance.3211, P1, 3.70481e+07
HydraPartInstance.3212, P1, 3.70556e+07
HydraPartInstance.3213, P1, 3.70631e+07
HydraPartInstance.3214, P1, 3.70706e+07
HydraPartInstance.3215, P1, 3.7078e+07
HydraPartInstance.3216, P1, 3.70855e+07
HydraPartInstance.3217, P1, 3.7093e+07
HydraPartInstance.3218, P1, 3.71005e+07
HydraPartInstance.3219, P1, 3.7108e+07
HydraPartInstance.3220, P1, 3.71155e+07
** ... 380 like lines cut
** 
** OUTPUT REQUESTS
** 
*Restart, write, frequency=0
** 
** FIELD OUTPUT: FASEI_REV
** 
*Output, field, time points=timePoint
*Node Output, nset=HydraPartInstance.FASEI_REV
NT, U
*Element Output, elset=HydraPartInstance.FASEI_REV, directions=YES
E, MISES, PE, S, PEEQ
** 
** FIELD OUTPUT: ROCK_OUTPUT
** 
*Node Output, nset=HydraPartInstance.ROCK_OUTPUT
U, 
*Element Output, elset=HydraPartInstance.ROCK_OUTPUT, directions=YES
TEMP, 
*Output, history, frequency=0
*End Step
** ----------------------------------------------------------------
** 
** STEP: Rev_9_875
** 
*Step, name=Rev_9_875, nlgeom=YES
*Static
1., 1., 1e-15, 1.
** 
** BOUNDARY CONDITIONS
** 
** Name: PIN_FASEI Type: Symmetry/Antisymmetry/Encastre
*Boundary, op=NEW
** Name: XSYM_ROCK_BC Type: Symmetry/Antisymmetry/Encastre
*Boundary, op=NEW
HydraPartInstance.ROCK_BC, XSYMM
** Name: YSYM_BASE Type: Symmetry/Antisymmetry/Encastre
*Boundary, op=NEW
HydraPartInstance.YSYM_BASE, YSYMM
** Name: YSYM_TOP Type: Symmetry/Antisymmetry/Encastre
*Boundary, op=NEW
HydraPartInstance.YSYM_TOP, YSYMM
** 
** LOADS
** 
** Name: GRAVITY   Type: Gravity
*Dload, op=NEW
, GRAV, 9.81, , -1.
** Name: P_FASEI_COMPLETED_WELL   Type: Pressure Using Field: P_FASEI_COMPLETED_WELL
*Dload, op=NEW
HydraPartInstance.6001, P3, 3.99632e+07
HydraPartInstance.6002, P3, 3.99557e+07
HydraPartInstance.6003, P3, 3.99482e+07
HydraPartInstance.6004, P3, 3.99407e+07
HydraPartInstance.6005, P3, 3.99332e+07
HydraPartInstance.6006, P3, 3.99257e+07
HydraPartInstance.6007, P3, 3.99182e+07
HydraPartInstance.6008, P3, 3.99107e+07
HydraPartInstance.6009, P3, 3.99032e+07
HydraPartInstance.6010, P3, 3.98957e+07
HydraPartInstance.6011, P3, 3.98882e+07
HydraPartInstance.6012, P3, 3.98807e+07
HydraPartInstance.6013, P3, 3.98732e+07
HydraPartInstance.6014, P3, 3.98657e+07
HydraPartInstance.6015, P3, 3.98582e+07
HydraPartInstance.6016, P3, 3.98508e+07
HydraPartInstance.6017, P3, 3.98433e+07
HydraPartInstance.6018, P3, 3.98358e+07
HydraPartInstance.6019, P3, 3.98283e+07
HydraPartInstance.6020, P3, 3.98208e+07
** ... 380 like lines cut
** Name: P_FASEI_FLUIDO   Type: Pressure Using Field: P_FASEI_FLUIDO
*Dload, op=NEW
HydraPartInstance.3201, P1, 3.69731e+07
HydraPartInstance.3202, P1, 3.69806e+07
HydraPartInstance.3203, P1, 3.69881e+07
HydraPartInstance.3204, P1, 3.69956e+07
HydraPartInstance.3205, P1, 3.70031e+07
HydraPartInstance.3206, P1, 3.70106e+07
HydraPartInstance.3207, P1, 3.70181e+07
HydraPartInstance.3208, P1, 3.70256e+07
HydraPartInstance.3209, P1, 3.70331e+07
HydraPartInstance.3210, P1, 3.70406e+07
HydraPartInstance.3211, P1, 3.70481e+07
HydraPartInstance.3212, P1, 3.70556e+07
HydraPartInstance.3213, P1, 3.70631e+07
HydraPartInstance.3214, P1, 3.70706e+07
HydraPartInstance.3215, P1, 3.7078e+07
HydraPartInstance.3216, P1, 3.70855e+07
HydraPartInstance.3217, P1, 3.7093e+07
HydraPartInstance.3218, P1, 3.71005e+07
HydraPartInstance.3219, P1, 3.7108e+07
HydraPartInstance.3220, P1, 3.71155e+07
** ... 780 like lines cut
** Name: P_FASEI_OPEN_WELL   Type: Pressure Using Field: P_FASEI_OPEN_WELL
*Dload, op=NEW
** 
** INTERACTIONS
** 
** Interaction: C_FASEI
*Model Change, type=CONTACT PAIR, add
HydraPartInstance_FASEI_SLAVE_CNS_, HydraPartInstance.FASEI_MASTER
** Interaction: MC_FASEI_REV
*Model Change, add
HydraPartInstance.FASEI_REV, 
** 
** OUTPUT REQUESTS
** 
** Block added by user *******
*Model Change, remove
HydraPartInstance.DUMMY_FASEI,
******************************
*Restart, write, frequency=0
** 
** FIELD OUTPUT: FASEI_REV
** 
*Output, field, time points=timePoint
*Node Output, nset=HydraPartInstance.FASEI_REV
NT, U
*Element Output, elset=HydraPartInstance.FASEI_REV, directions=YES
E, MISES, PE, S, PEEQ
** 
** FIELD OUTPUT: ROCK_OUTPUT
** 
*Node Output, nset=HydraPartInstance.ROCK_OUTPUT
U, 
*Element Output, elset=HydraPartInstance.ROCK_OUTPUT, directions=YES
TEMP, 
*Output, history, frequency=0
*End Step
** ----------------------------------------------------------------
** 
** STEP: Rev_9_875_Creep
** 
*Step, name=Rev_9_875_Creep, nlgeom=YES, inc=1000000
*Visco, cetol=0.01
1., 9.45907e+08, 1e-15, 1.5552e+07
** 
** LOADS
** 
** Name: GRAVITY   Type: Gravity
*Dload, op=NEW
, GRAV, 9.81, , -1.
** Name: P_FASEI_COMPLETED_WELL   Type: Pressure Using Field: P_FASEI_COMPLETED_WELL
*Dload, op=NEW
HydraPartInstance.6001, P3, 3.99632e+07
HydraPartInstance.6002, P3, 3.99557e+07
HydraPartInstance.6003, P3, 3.99482e+07
HydraPartInstance.6004, P3, 3.99407e+07
HydraPartInstance.6005, P3, 3.99332e+07
HydraPartInstance.6006, P3, 3.99257e+07
HydraPartInstance.6007, P3, 3.99182e+07
HydraPartInstance.6008, P3, 3.99107e+07
HydraPartInstance.6009, P3, 3.99032e+07
HydraPartInstance.6010, P3, 3.98957e+07
HydraPartInstance.6011, P3, 3.98882e+07
HydraPartInstance.6012, P3, 3.98807e+07
HydraPartInstance.6013, P3, 3.98732e+07
HydraPartInstance.6014, P3, 3.98657e+07
HydraPartInstance.6015, P3, 3.98582e+07
HydraPartInstance.6016, P3, 3.98508e+07
HydraPartInstance.6017, P3, 3.98433e+07
HydraPartInstance.6018, P3, 3.98358e+07
HydraPartInstance.6019, P3, 3.98283e+07
HydraPartInstance.6020, P3, 3.98208e+07
** ... 380 like lines cut
** Name: P_FASEI_FLUIDO   Type: Pressure Using Field: P_FASEI_FLUIDO
*Dload, op=NEW
HydraPartInstance.3201, P1, 3.69731e+07
HydraPartInstance.3202, P1, 3.69806e+07
HydraPartInstance.3203, P1, 3.69881e+07
HydraPartInstance.3204, P1, 3.69956e+07
HydraPartInstance.3205, P1, 3.70031e+07
HydraPartInstance.3206, P1, 3.70106e+07
HydraPartInstance.3207, P1, 3.70181e+07
HydraPartInstance.3208, P1, 3.70256e+07
HydraPartInstance.3209, P1, 3.70331e+07
HydraPartInstance.3210, P1, 3.70406e+07
HydraPartInstance.3211, P1, 3.70481e+07
HydraPartInstance.3212, P1, 3.70556e+07
HydraPartInstance.3213, P1, 3.70631e+07
HydraPartInstance.3214, P1, 3.70706e+07
HydraPartInstance.3215, P1, 3.7078e+07
HydraPartInstance.3216, P1, 3.70855e+07
HydraPartInstance.3217, P1, 3.7093e+07
HydraPartInstance.3218, P1, 3.71005e+07
HydraPartInstance.3219, P1, 3.7108e+07
HydraPartInstance.3220, P1, 3.71155e+07
** ... 780 like lines cut
** 
** OUTPUT REQUESTS
** 
*Restart, write, frequency=0
** 
** FIELD OUTPUT: FASEI_REV
** 
*Output, field, time points=timePoint
*Node Output, nset=HydraPartInstance.FASEI_REV
NT, U
*Element Output, elset=HydraPartInstance.FASEI_REV, directions=YES
E, MISES, PE, S, PEEQ
** 
** FIELD OUTPUT: ROCK_OUTPUT
** 
*Node Output, nset=HydraPartInstance.ROCK_OUTPUT
U, 
*Element Output, elset=HydraPartInstance.ROCK_OUTPUT, directions=YES
TEMP, 
*Output, history, frequency=0
*End Step
