*Heading
** Job name: WellClosureJob Model name: MyFirstModel
** Generated by: Abaqus/CAE 2024
*Preprint, echo=NO, model=NO, history=NO, contact=NO
**
** PARTS
**
*Part, name=FLUID
*End Part
**  
*Part, name=PIPE
*End Part
**  
*Part, name=ROCK
*End Part
**  
**
** ASSEMBLY
**
*Assembly, name=Assembly
**  
*Instance, name=FLUID_INST, part=FLUID
*Node
      1,  0.155575007,       -3700.
      2,  0.150678098,       -3700.
      3,  0.145781189,       -3700.
      4,   0.14088428,       -3700.
      5,  0.155575007,       -3705.
      6,  0.150678098,       -3705.
      7,  0.145781189,       -3705.
      8,   0.14088428,       -3705.
      9,  0.155575007,       -3710.
     10,  0.150678098,       -3710.
     11,  0.145781189,       -3710.
     12,   0.14088428,       -3710.
     13,  0.155575007,       -3715.
     14,  0.150678098,       -3715.
     15,  0.145781189,       -3715.
     16,   0.14088428,       -3715.
     17,  0.155575007,       -3720.
     18,  0.150678098,       -3720.
     19,  0.145781189,       -3720.
     20,   0.14088428,       -3720.
** ... 304 like lines cut
*Element, type=CAX4
  1,   1,   2,   6,   5
  2,   2,   3,   7,   6
  3,   3,   4,   8,   7
  4,   5,   6,  10,   9
  5,   6,   7,  11,  10
  6,   7,   8,  12,  11
  7,   9,  10,  14,  13
  8,  10,  11,  15,  14
  9,  11,  12,  16,  15
 10,  13,  14,  18,  17
 11,  14,  15,  19,  18
 12,  15,  16,  20,  19
 13,  17,  18,  22,  21
 14,  18,  19,  23,  22
 15,  19,  20,  24,  23
 16,  21,  22,  26,  25
 17,  22,  23,  27,  26
 18,  23,  24,  28,  27
 19,  25,  26,  30,  29
 20,  26,  27,  31,  30
** ... 220 like lines cut
*Nset, nset=FASEI_FLUIDO, generate
   1,  324,    1
*Elset, elset=FASEI_FLUIDO, generate
   1,  240,    1
*Nset, nset=FASEI_FLUIDO_BASE, generate
 321,  324,    1
*Elset, elset=FASEI_FLUIDO_BASE, generate
 238,  240,    1
*Nset, nset=FASEI_FLUIDO_ID, generate
   4,  324,    4
*Elset, elset=FASEI_FLUIDO_ID, generate
   3,  240,    3
*Nset, nset=FASEI_FLUIDO_OD, generate
   1,  321,    4
*Elset, elset=FASEI_FLUIDO_OD, generate
   1,  238,    3
*Nset, nset=FASEI_FLUIDO_TOP, generate
 1,  4,  1
*Elset, elset=FASEI_FLUIDO_TOP, generate
 1,  3,  1
*Nset, nset=FASEI_ANNULAR, generate
   1,  324,    1
*Elset, elset=FASEI_ANNULAR, generate
   1,  240,    1
*Nset, nset=FASEI_ANNULAR_BASE, generate
 321,  324,    1
*Elset, elset=FASEI_ANNULAR_BASE, generate
 238,  240,    1
*Nset, nset=FASEI_ANNULAR_ID, generate
   4,  324,    4
*Elset, elset=FASEI_ANNULAR_ID, generate
   3,  240,    3
*Nset, nset=FASEI_ANNULAR_OD, generate
   1,  321,    4
*Elset, elset=FASEI_ANNULAR_OD, generate
   1,  238,    3
*Nset, nset=FASEI_ANNULAR_TOP, generate
 1,  4,  1
*Elset, elset=FASEI_ANNULAR_TOP, generate
 1,  3,  1
*Nset, nset=FASEI_ANNULAR_TT
   1,   2,   3,   4, 321, 322, 323, 324
*Elset, elset=FASEI_ANNULAR_TT
   1,   2,   3, 238, 239, 240
** Section: FLUID_Section
*Solid Section, elset=FASEI_FLUIDO, material=FLUID
1.,
*End Instance
**  
*Instance, name=PIPE_INST, part=PIPE
*Node
      1,   0.14088428,       -3700.
      2,   0.13559261,       -3700.
      3,  0.130300939,       -3700.
      4,  0.125009269,       -3700.
      5,   0.14088428,       -3705.
      6,   0.13559261,       -3705.
      7,  0.130300939,       -3705.
      8,  0.125009269,       -3705.
      9,   0.14088428,       -3710.
     10,   0.13559261,       -3710.
     11,  0.130300939,       -3710.
     12,  0.125009269,       -3710.
     13,   0.14088428,       -3715.
     14,   0.13559261,       -3715.
     15,  0.130300939,       -3715.
     16,  0.125009269,       -3715.
     17,   0.14088428,       -3720.
     18,   0.13559261,       -3720.
     19,  0.130300939,       -3720.
     20,  0.125009269,       -3720.
** ... 304 like lines cut
*Element, type=CAX4
  1,   1,   2,   6,   5
  2,   2,   3,   7,   6
  3,   3,   4,   8,   7
  4,   5,   6,  10,   9
  5,   6,   7,  11,  10
  6,   7,   8,  12,  11
  7,   9,  10,  14,  13
  8,  10,  11,  15,  14
  9,  11,  12,  16,  15
 10,  13,  14,  18,  17
 11,  14,  15,  19,  18
 12,  15,  16,  20,  19
 13,  17,  18,  22,  21
 14,  18,  19,  23,  22
 15,  19,  20,  24,  23
 16,  21,  22,  26,  25
 17,  22,  23,  27,  26
 18,  23,  24,  28,  27
 19,  25,  26,  30,  29
 20,  26,  27,  31,  30
** ... 220 like lines cut
*Nset, nset=FASEI_REV, generate
   1,  324,    1
*Elset, elset=FASEI_REV, generate
   1,  240,    1
*Nset, nset=FASEI_REV_ABOVE_TOC, generate
   1,  324,    1
*Elset, elset=FASEI_REV_ABOVE_TOC, generate
   1,  240,    1
*Nset, nset=FASEI_REV_BASE, generate
 321,  324,    1
*Elset, elset=FASEI_REV_BASE, generate
 238,  240,    1
*Nset, nset=FASEI_REV_ID, generate
   4,  324,    4
*Elset, elset=FASEI_REV_ID, generate
   3,  240,    3
*Nset, nset=FASEI_REV_OD, generate
   1,  321,    4
*Elset, elset=FASEI_REV_OD, generate
   1,  238,    3
*Nset, nset=FASEI_REV_TOP, generate
 1,  4,  1
*Elset, elset=FASEI_REV_TOP, generate
 1,  3,  1
*Nset, nset=FASEI_REV_TT
   1,   2,   3,   4, 321, 322, 323, 324
*Elset, elset=FASEI_REV_TT
   1,   2,   3, 238, 239, 240
** Section: STEEL_Section
*Solid Section, elset=FASEI_REV, material=STEEL
1.,
*End Instance
**  
*Instance, name=ROCK_INST, part=ROCK
*Node
      1,   12.1555748,       -3700.
      2,   9.15060329,       -3700.
      3,   6.89736795,       -3700.
      4,   5.20781231,       -3700.
      5,   3.94092321,       -3700.
      6,   2.99096465,       -3700.
      7,   2.27865171,       -3700.
      8,   1.74453425,       -3700.
      9,   1.34403396,       -3700.
     10,   1.04372454,       -3700.
     11,  0.818541765,       -3700.
     12,  0.649691761,       -3700.
     13,  0.523082018,       -3700.
     14,  0.428145498,       -3700.
     15,  0.356958717,       -3700.
     16,  0.303580344,       -3700.
     17,  0.263555348,       -3700.
     18,  0.233543172,       -3700.
     19,  0.211038962,       -3700.
     20,  0.194164515,       -3700.
** ... 2005 like lines cut
*Element, type=CAX4
   1,    1,    2,   27,   26
   2,    2,    3,   28,   27
   3,    3,    4,   29,   28
   4,    4,    5,   30,   29
   5,    5,    6,   31,   30
   6,    6,    7,   32,   31
   7,    7,    8,   33,   32
   8,    8,    9,   34,   33
   9,    9,   10,   35,   34
  10,   10,   11,   36,   35
  11,   11,   12,   37,   36
  12,   12,   13,   38,   37
  13,   13,   14,   39,   38
  14,   14,   15,   40,   39
  15,   15,   16,   41,   40
  16,   16,   17,   42,   41
  17,   17,   18,   43,   42
  18,   18,   19,   44,   43
  19,   19,   20,   45,   44
  20,   20,   21,   46,   45
** ... 1900 like lines cut
*Node
   2026,           0.,       -3700.,           0.
*Nset, nset=ROCK_INST-RefPt_, internal
2026, 
*Nset, nset=RP_TOP_3700
 2026,
*Nset, nset=ALLROCK, generate
    1,  2025,     1
*Elset, elset=ALLROCK, generate
    1,  1920,     1
*Nset, nset=FASEI_SLAVE, generate
    1,  2025,     1
*Elset, elset=FASEI_SLAVE, generate
    1,  1920,     1
*Nset, nset=L1-I_BASE, generate
 2001,  2025,     1
*Elset, elset=L1-I_BASE, generate
 1897,  1920,     1
*Nset, nset=L1-I_ID, generate
   25,  2025,    25
*Elset, elset=L1-I_ID, generate
   24,  1920,    24
*Nset, nset=L1-I_OD, generate
    1,  2001,    25
*Elset, elset=L1-I_OD, generate
    1,  1897,    24
*Nset, nset=L1-I_TOP, generate
  1,  25,   1
*Elset, elset=L1-I_TOP, generate
  1,  24,   1
*Nset, nset=L1-I, generate
    1,  2025,     1
*Elset, elset=L1-I, generate
    1,  1920,     1
** Section: LAYER_01_HALITE_Section
*Solid Section, elset=L1-I, material=LAYER_01_HALITE
1.,
*End Instance
**  
*Nset, nset=ALL, instance=FLUID_INST, generate
   1,  324,    1
*Nset, nset=ALL, instance=PIPE_INST, generate
   1,  324,    1
*Nset, nset=ALL, instance=ROCK_INST, generate
    1,  2025,     1
*Elset, elset=ALL, instance=FLUID_INST, generate
   1,  240,    1
*Elset, elset=ALL, instance=PIPE_INST, generate
   1,  240,    1
*Elset, elset=ALL, instance=ROCK_INST, generate
    1,  1920,     1
*Nset, nset=FASEI, instance=FLUID_INST, generate
   1,  324,    1
*Nset, nset=FASEI, instance=PIPE_INST, generate
   1,  324,    1
*Elset, elset=FASEI, instance=FLUID_INST, generate
   1,  240,    1
*Elset, elset=FASEI, instance=PIPE_INST, generate
   1,  240,    1
*Nset, nset=FASEI_COMPLETED_WELL, instance=PIPE_INST, generate
   4,  324,    4
*Elset, elset=FASEI_COMPLETED_WELL, instance=PIPE_INST, generate
   3,  240,    3
*Nset, nset=FASEI_OPEN_WELL, instance=ROCK_INST, generate
   25,  2025,    25
*Elset, elset=FASEI_OPEN_WELL, instance=ROCK_INST, generate
   24,  1920,    24
*Nset, nset=FASEI_WELL, instance=ROCK_INST, generate
   25,  2025,    25
*Elset, elset=FASEI_WELL, instance=ROCK_INST, generate
   24,  1920,    24
*Nset, nset=MESH_TT_ANNULARS, instance=FLUID_INST
   1,   2,   3,   4, 321, 322, 323, 324
*Elset, elset=MESH_TT_ANNULARS, instance=FLUID_INST
   1,   2,   3, 238, 239, 240
*Nset, nset=MESH_TT_PIPES, instance=PIPE_INST
   1,   2,   3,   4, 321, 322, 323, 324
*Elset, elset=MESH_TT_PIPES, instance=PIPE_INST
   1,   2,   3, 238, 239, 240
*Nset, nset=MESH_TT_ROCK, instance=ROCK_INST
    1,    2,    3,    4,    5,    6,    7,    8,    9,   10,   11,   12,   13,   14,   15,   16
   17,   18,   19,   20,   21,   22,   23,   24,   25, 2001, 2002, 2003, 2004, 2005, 2006, 2007
 2008, 2009, 2010, 2011, 2012, 2013, 2014, 2015, 2016, 2017, 2018, 2019, 2020, 2021, 2022, 2023
 2024, 2025
*Elset, elset=MESH_TT_ROCK, instance=ROCK_INST
    1,    2,    3,    4,    5,    6,    7,    8,    9,   10,   11,   12,   13,   14,   15,   16
   17,   18,   19,   20,   21,   22,   23,   24, 1897, 1898, 1899, 1900, 1901, 1902, 1903, 1904
 1905, 1906, 1907, 1908, 1909, 1910, 1911, 1912, 1913, 1914, 1915, 1916, 1917, 1918, 1919, 1920
*Nset, nset=MESH_VERTICAL, instance=FLUID_INST
   1,   4,   5,   8,   9,  12,  13,  16,  17,  20,  21,  24,  25,  28,  29,  32
  33,  36,  37,  40,  41,  44,  45,  48,  49,  52,  53,  56,  57,  60,  61,  64
  65,  68,  69,  72,  73,  76,  77,  80,  81,  84,  85,  88,  89,  92,  93,  96
  97, 100, 101, 104, 105, 108, 109, 112, 113, 116, 117, 120, 121, 124, 125, 128
 129, 132, 133, 136, 137, 140, 141, 144, 145, 148, 149, 152, 153, 156, 157, 160
 161, 164, 165, 168, 169, 172, 173, 176, 177, 180, 181, 184, 185, 188, 189, 192
 193, 196, 197, 200, 201, 204, 205, 208, 209, 212, 213, 216, 217, 220, 221, 224
 225, 228, 229, 232, 233, 236, 237, 240, 241, 244, 245, 248, 249, 252, 253, 256
 257, 260, 261, 264, 265, 268, 269, 272, 273, 276, 277, 280, 281, 284, 285, 288
 289, 292, 293, 296, 297, 300, 301, 304, 305, 308, 309, 312, 313, 316, 317, 320
 321, 324
*Nset, nset=MESH_VERTICAL, instance=PIPE_INST
   1,   4,   5,   8,   9,  12,  13,  16,  17,  20,  21,  24,  25,  28,  29,  32
  33,  36,  37,  40,  41,  44,  45,  48,  49,  52,  53,  56,  57,  60,  61,  64
  65,  68,  69,  72,  73,  76,  77,  80,  81,  84,  85,  88,  89,  92,  93,  96
  97, 100, 101, 104, 105, 108, 109, 112, 113, 116, 117, 120, 121, 124, 125, 128
 129, 132, 133, 136, 137, 140, 141, 144, 145, 148, 149, 152, 153, 156, 157, 160
 161, 164, 165, 168, 169, 172, 173, 176, 177, 180, 181, 184, 185, 188, 189, 192
 193, 196, 197, 200, 201, 204, 205, 208, 209, 212, 213, 216, 217, 220, 221, 224
 225, 228, 229, 232, 233, 236, 237, 240, 241, 244, 245, 248, 249, 252, 253, 256
 257, 260, 261, 264, 265, 268, 269, 272, 273, 276, 277, 280, 281, 284, 285, 288
 289, 292, 293, 296, 297, 300, 301, 304, 305, 308, 309, 312, 313, 316, 317, 320
 321, 324
*Nset, nset=MESH_VERTICAL, instance=ROCK_INST
    1,   25,   26,   50,   51,   75,   76,  100,  101,  125,  126,  150,  151,  175,  176,  200
  201,  225,  226,  250,  251,  275,  276,  300,  301,  325,  326,  350,  351,  375,  376,  400
  401,  425,  426,  450,  451,  475,  476,  500,  501,  525,  526,  550,  551,  575,  576,  600
  601,  625,  626,  650,  651,  675,  676,  700,  701,  725,  726,  750,  751,  775,  776,  800
  801,  825,  826,  850,  851,  875,  876,  900,  901,  925,  926,  950,  951,  975,  976, 1000
 1001, 1025, 1026, 1050, 1051, 1075, 1076, 1100, 1101, 1125, 1126, 1150, 1151, 1175, 1176, 1200
 1201, 1225, 1226, 1250, 1251, 1275, 1276, 1300, 1301, 1325, 1326, 1350, 1351, 1375, 1376, 1400
 1401, 1425, 1426, 1450, 1451, 1475, 1476, 1500, 1501, 1525, 1526, 1550, 1551, 1575, 1576, 1600
 1601, 1625, 1626, 1650, 1651, 1675, 1676, 1700, 1701, 1725, 1726, 1750, 1751, 1775, 1776, 1800
 1801, 1825, 1826, 1850, 1851, 1875, 1876, 1900, 1901, 1925, 1926, 1950, 1951, 1975, 1976, 2000
 2001, 2025
*Elset, elset=MESH_VERTICAL, instance=FLUID_INST
   1,   3,   4,   6,   7,   9,  10,  12,  13,  15,  16,  18,  19,  21,  22,  24
  25,  27,  28,  30,  31,  33,  34,  36,  37,  39,  40,  42,  43,  45,  46,  48
  49,  51,  52,  54,  55,  57,  58,  60,  61,  63,  64,  66,  67,  69,  70,  72
  73,  75,  76,  78,  79,  81,  82,  84,  85,  87,  88,  90,  91,  93,  94,  96
  97,  99, 100, 102, 103, 105, 106, 108, 109, 111, 112, 114, 115, 117, 118, 120
 121, 123, 124, 126, 127, 129, 130, 132, 133, 135, 136, 138, 139, 141, 142, 144
 145, 147, 148, 150, 151, 153, 154, 156, 157, 159, 160, 162, 163, 165, 166, 168
 169, 171, 172, 174, 175, 177, 178, 180, 181, 183, 184, 186, 187, 189, 190, 192
 193, 195, 196, 198, 199, 201, 202, 204, 205, 207, 208, 210, 211, 213, 214, 216
 217, 219, 220, 222, 223, 225, 226, 228, 229, 231, 232, 234, 235, 237, 238, 240
*Elset, elset=MESH_VERTICAL, instance=PIPE_INST
   1,   3,   4,   6,   7,   9,  10,  12,  13,  15,  16,  18,  19,  21,  22,  24
  25,  27,  28,  30,  31,  33,  34,  36,  37,  39,  40,  42,  43,  45,  46,  48
  49,  51,  52,  54,  55,  57,  58,  60,  61,  63,  64,  66,  67,  69,  70,  72
  73,  75,  76,  78,  79,  81,  82,  84,  85,  87,  88,  90,  91,  93,  94,  96
  97,  99, 100, 102, 103, 105, 106, 108, 109, 111, 112, 114, 115, 117, 118, 120
 121, 123, 124, 126, 127, 129, 130, 132, 133, 135, 136, 138, 139, 141, 142, 144
 145, 147, 148, 150, 151, 153, 154, 156, 157, 159, 160, 162, 163, 165, 166, 168
 169, 171, 172, 174, 175, 177, 178, 180, 181, 183, 184, 186, 187, 189, 190, 192
 193, 195, 196, 198, 199, 201, 202, 204, 205, 207, 208, 210, 211, 213, 214, 216
 217, 219, 220, 222, 223, 225, 226, 228, 229, 231, 232, 234, 235, 237, 238, 240
*Elset, elset=MESH_VERTICAL, instance=ROCK_INST
    1,   24,   25,   48,   49,   72,   73,   96,   97,  120,  121,  144,  145,  168,  169,  192
  193,  216,  217,  240,  241,  264,  265,  288,  289,  312,  313,  336,  337,  360,  361,  384
  385,  408,  409,  432,  433,  456,  457,  480,  481,  504,  505,  528,  529,  552,  553,  576
  577,  600,  601,  624,  625,  648,  649,  672,  673,  696,  697,  720,  721,  744,  745,  768
  769,  792,  793,  816,  817,  840,  841,  864,  865,  888,  889,  912,  913,  936,  937,  960
  961,  984,  985, 1008, 1009, 1032, 1033, 1056, 1057, 1080, 1081, 1104, 1105, 1128, 1129, 1152
 1153, 1176, 1177, 1200, 1201, 1224, 1225, 1248, 1249, 1272, 1273, 1296, 1297, 1320, 1321, 1344
 1345, 1368, 1369, 1392, 1393, 1416, 1417, 1440, 1441, 1464, 1465, 1488, 1489, 1512, 1513, 1536
 1537, 1560, 1561, 1584, 1585, 1608, 1609, 1632, 1633, 1656, 1657, 1680, 1681, 1704, 1705, 1728
 1729, 1752, 1753, 1776, 1777, 1800, 1801, 1824, 1825, 1848, 1849, 1872, 1873, 1896, 1897, 1920
*Nset, nset=ROCK_BC, instance=ROCK_INST, generate
    1,  2001,    25
*Elset, elset=ROCK_BC, instance=ROCK_INST, generate
    1,  1897,    24
*Nset, nset=ROCK_OUTPUT, instance=ROCK_INST, generate
    1,  2025,     1
*Elset, elset=ROCK_OUTPUT, instance=ROCK_INST, generate
    1,  1920,     1
*Nset, nset=YSYM_BASE, instance=FLUID_INST, generate
 321,  324,    1
*Nset, nset=YSYM_BASE, instance=PIPE_INST, generate
 321,  324,    1
*Nset, nset=YSYM_BASE, instance=ROCK_INST, generate
 2001,  2025,     1
*Elset, elset=YSYM_BASE, instance=FLUID_INST, generate
 238,  240,    1
*Elset, elset=YSYM_BASE, instance=PIPE_INST, generate
 238,  240,    1
*Elset, elset=YSYM_BASE, instance=ROCK_INST, generate
 1897,  1920,     1
*Nset, nset=YSYM_TOP, instance=FLUID_INST, generate
 1,  4,  1
*Nset, nset=YSYM_TOP, instance=PIPE_INST, generate
 1,  4,  1
*Nset, nset=YSYM_TOP, instance=ROCK_INST, generate
  1,  25,   1
*Elset, elset=YSYM_TOP, instance=FLUID_INST, generate
 1,  3,  1
*Elset, elset=YSYM_TOP, instance=PIPE_INST, generate
 1,  3,  1
*Elset, elset=YSYM_TOP, instance=ROCK_INST, generate
  1,  24,   1
*Elset, elset=_FASEI_ANNULAR_S1, internal, instance=FLUID_INST, generate
 1,  3,  1
*Elset, elset=_FASEI_ANNULAR_S2, internal, instance=FLUID_INST, generate
   3,  240,    3
*Elset, elset=_FASEI_ANNULAR_S3, internal, instance=FLUID_INST, generate
 238,  240,    1
*Elset, elset=_FASEI_ANNULAR_S4, internal, instance=FLUID_INST, generate
   1,  238,    3
*Surface, type=ELEMENT, name=FASEI_ANNULAR
_FASEI_ANNULAR_S1, S1
_FASEI_ANNULAR_S2, S2
_FASEI_ANNULAR_S4, S4
_FASEI_ANNULAR_S3, S3
*Elset, elset=_FASEI_COMPLETED_WELL_S2, internal, instance=PIPE_INST, generate
   3,  240,    3
*Surface, type=ELEMENT, name=FASEI_COMPLETED_WELL
_FASEI_COMPLETED_WELL_S2, S2
*Elset, elset=_FASEI_FLUIDO_S4, internal, instance=PIPE_INST, generate
   1,  238,    3
*Elset, elset=_FASEI_FLUIDO_S2, internal, instance=ROCK_INST, generate
   24,  1920,    24
*Surface, type=ELEMENT, name=FASEI_FLUIDO
_FASEI_FLUIDO_S4, S4
_FASEI_FLUIDO_S2, S2
*Elset, elset=_FASEI_MASTER_S4, internal, instance=PIPE_INST, generate
   1,  238,    3
*Surface, type=ELEMENT, name=FASEI_MASTER
_FASEI_MASTER_S4, S4
*Elset, elset=_FASEI_OPEN_WELL_S2, internal, instance=ROCK_INST, generate
   24,  1920,    24
*Surface, type=ELEMENT, name=FASEI_OPEN_WELL
_FASEI_OPEN_WELL_S2, S2
*Elset, elset=_FASEI_REV_S1, internal, instance=PIPE_INST, generate
 1,  3,  1
*Elset, elset=_FASEI_REV_S2, internal, instance=PIPE_INST, generate
   3,  240,    3
*Elset, elset=_FASEI_REV_S3, internal, instance=PIPE_INST, generate
 238,  240,    1
*Elset, elset=_FASEI_REV_S4, internal, instance=PIPE_INST, generate
   1,  238,    3
*Surface, type=ELEMENT, name=FASEI_REV
_FASEI_REV_S1, S1
_FASEI_REV_S2, S2
_FASEI_REV_S4, S4
_FASEI_REV_S3, S3
*Elset, elset=_FASEI_WELL_S2, internal, instance=ROCK_INST, generate
   24,  1920,    24
*Surface, type=ELEMENT, name=FASEI_WELL
_FASEI_WELL_S2, S2
*Surface, type=NODE, name=ROCK_INST_FASEI_SLAVE_CNS_, internal
ROCK_INST.FASEI_SLAVE, 1.
*End Assembly
** 
** MATERIALS
** 
*Material, name=FLUID
*Conductivity
 0.702,
*Density
1.,
*Elastic
10000.,0.
*Specific Heat
2060.,
*Material, name=LAYER_01_HALITE
*Conductivity
 5.55,
*Creep, law=DOUBLE POWER
 0.0077864,    6042.9,      2.94, 0.0076093,    6042.9,      8.15,  1.03e+07
*Density
 2169.93,
*Elastic
 2.04e+10, 0.36
*Expansion
 1e-05,
*Specific Heat
 0.209946,
*Material, name=STEEL
*Conductivity
 45.3452,
*Density
7935.,
*Elastic
 2.06843e+11, 0.3
*Expansion
 0.0001242,
*Specific Heat
 460.9,
** 
** INTERACTION PROPERTIES
** 
*Surface Interaction, name=C_FASEI
1.,
*Friction, slip tolerance=0.005
 0.5,
*Surface Behavior, pressure-overclosure=HARD
*Time Points, name=timePoint
1., 3600., 7200., 14400., 28800., 57600., 86400., 172800.
345600., 691200., 1.3824e+06, 2.7648e+06, 5.5296e+06, 1.10592e+07, 2.21184e+07, 3.1536e+07
6.3072e+07, 1.26144e+08, 2.52288e+08, 5.04576e+08, 9.4608e+08
** 
** PHYSICAL CONSTANTS
** 
*Physical Constants, absolute zero=0., stefan boltzmann=5.67037e-08
** 
** BOUNDARY CONDITIONS
** 
** Name: FIX_FASEI_WELL Type: Symmetry/Antisymmetry/Encastre
*Boundary
FASEI_OPEN_WELL, XSYMM
** Name: PIN_FASEI Type: Symmetry/Antisymmetry/Encastre
*Boundary
PIPE_INST.FASEI_REV, PINNED
** Name: XSYM_ROCK_BC Type: Symmetry/Antisymmetry/Encastre
*Boundary
ROCK_BC, XSYMM
** Name: YSYM_BASE Type: Symmetry/Antisymmetry/Encastre
*Boundary
YSYM_BASE, YSYMM
** Name: YSYM_TOP Type: Symmetry/Antisymmetry/Encastre
*Boundary
YSYM_TOP, YSYMM
** 
** PREDEFINED FIELDS
** 
** Name: NT_FASEI   Type: Temperature Using Field: Geotermico
*Initial Conditions, type=TEMPERATURE
FLUID_INST.1, 313.437
FLUID_INST.2, 313.437
FLUID_INST.3, 313.437
FLUID_INST.4, 313.437
FLUID_INST.5, 313.491
FLUID_INST.6, 313.491
FLUID_INST.7, 313.491
FLUID_INST.8, 313.491
FLUID_INST.9, 313.597
FLUID_INST.10, 313.597
FLUID_INST.11, 313.597
FLUID_INST.12, 313.597
FLUID_INST.13, 313.704
FLUID_INST.14, 313.704
FLUID_INST.15, 313.704
FLUID_INST.16, 313.704
FLUID_INST.17, 313.811
FLUID_INST.18, 313.811
FLUID_INST.19, 313.811
FLUID_INST.20, 313.811
** ... 304 like lines cut
PIPE_INST.1, 313.437
PIPE_INST.2, 313.437
PIPE_INST.3, 313.437
PIPE_INST.4, 313.437
PIPE_INST.5, 313.491
PIPE_INST.6, 313.491
PIPE_INST.7, 313.491
PIPE_INST.8, 313.491
PIPE_INST.9, 313.597
PIPE_INST.10, 313.597
PIPE_INST.11, 313.597
PIPE_INST.12, 313.597
PIPE_INST.13, 313.704
PIPE_INST.14, 313.704
PIPE_INST.15, 313.704
PIPE_INST.16, 313.704
PIPE_INST.17, 313.811
PIPE_INST.18, 313.811
PIPE_INST.19, 313.811
PIPE_INST.20, 313.811
** ... 304 like lines cut
** Name: NT_FASEI_ID   Type: Temperature Using Field: Geotermico
*Initial Conditions, type=TEMPERATURE
PIPE_INST.4, 313.437
PIPE_INST.8, 313.491
PIPE_INST.12, 313.597
PIPE_INST.16, 313.704
PIPE_INST.20, 313.811
PIPE_INST.24, 313.917
PIPE_INST.28, 314.024
PIPE_INST.32, 314.13
PIPE_INST.36, 314.237
PIPE_INST.40, 314.343
PIPE_INST.44, 314.45
PIPE_INST.48, 314.557
PIPE_INST.52, 314.663
PIPE_INST.56, 314.77
PIPE_INST.60, 314.876
PIPE_INST.64, 314.983
PIPE_INST.68, 315.089
PIPE_INST.72, 315.196
PIPE_INST.76, 315.303
PIPE_INST.80, 315.409
** ... 61 like lines cut
** Name: NT_L1-I   Type: Temperature Using Field: NT_L1-I
*Initial Conditions, type=TEMPERATURE
ROCK_INST.1, 313.369
ROCK_INST.2, 313.369
ROCK_INST.3, 313.369
ROCK_INST.4, 313.369
ROCK_INST.5, 313.369
ROCK_INST.6, 313.369
ROCK_INST.7, 313.369
ROCK_INST.8, 313.369
ROCK_INST.9, 313.369
ROCK_INST.10, 313.369
ROCK_INST.11, 313.369
ROCK_INST.12, 313.369
ROCK_INST.13, 313.369
ROCK_INST.14, 313.369
ROCK_INST.15, 313.369
ROCK_INST.16, 313.369
ROCK_INST.17, 313.369
ROCK_INST.18, 313.369
ROCK_INST.19, 313.369
ROCK_INST.20, 313.369
** ... 2005 like lines cut
** Name: NT_L1-I_OD   Type: Temperature Using Field: NT_L1-I
*Initial Conditions, type=TEMPERATURE
ROCK_INST.1, 313.369
ROCK_INST.26, 313.475
ROCK_INST.51, 313.582
ROCK_INST.76, 313.688
ROCK_INST.101, 313.795
ROCK_INST.126, 313.901
ROCK_INST.151, 314.008
ROCK_INST.176, 314.115
ROCK_INST.201, 314.221
ROCK_INST.226, 314.328
ROCK_INST.251, 314.434
ROCK_INST.276, 314.541
ROCK_INST.301, 314.647
ROCK_INST.326, 314.754
ROCK_INST.351, 314.86
ROCK_INST.376, 314.967
ROCK_INST.401, 315.074
ROCK_INST.426, 315.18
ROCK_INST.451, 315.287
ROCK_INST.476, 315.393
** ... 61 like lines cut
** Name: S_FASEI_REV   Type: Geostatic stress
*Initial Conditions, type=STRESS, GEOSTATIC
PIPE_INST.FASEI_REV, 6.91531e+07, -3700., 3.80162e+07, -4100., 0., 0.
** Name: S_L1-I   Type: Geostatic stress
*Initial Conditions, type=STRESS, GEOSTATIC
ROCK_INST.L1-I, -5.82102e+07, -3700., -6.6725e+07, -4100., 1., 1.
** 
** INTERACTIONS
** 
** Interaction: C_FASEI
*Contact Pair, interaction=C_FASEI, type=SURFACE TO SURFACE
ROCK_INST_FASEI_SLAVE_CNS_, FASEI_MASTER
** ----------------------------------------------------------------
** 
** STEP: Geostatic
** 
*Step, name=Geostatic, nlgeom=YES
*Geostatic
** 
** LOADS
** 
** Name: GRAVITY   Type: Gravity
*Dload, op=NEW
, GRAV, 9.81, , -1.
** 
** INTERACTIONS
** 
** Interaction: C_FASEI
*Model Change, type=CONTACT PAIR, remove
ROCK_INST_FASEI_SLAVE_CNS_, FASEI_MASTER
** Interaction: MC_FASEI_FLUIDO
*Model Change, remove
FLUID_INST.FASEI_FLUIDO, 
** Interaction: MC_FASEI_REV
*Model Change, remove
PIPE_INST.FASEI_REV, 
** 
** OUTPUT REQUESTS
** 
*Restart, write, frequency=0
** 
** FIELD OUTPUT: FASEI_REV
** 
*Output, field
*Node Output, nset=PIPE_INST.FASEI_REV
NT, U
*Element Output, elset=PIPE_INST.FASEI_REV, directions=YES
E, MISES, PE, S, PEEQ
** 
** FIELD OUTPUT: ROCK_OUTPUT
** 
*Node Output, nset=ROCK_OUTPUT
U, 
*Element Output, elset=ROCK_OUTPUT, directions=YES
TEMP, 
*Output, history, frequency=0
*End Step
** ----------------------------------------------------------------
** 
** STEP: Transition
** 
*Step, name=Transition, nlgeom=YES
*Static
1., 2., 2e-05, 2.
** 
** LOADS
** 
** Name: GRAVITY   Type: Gravity
*Dload, op=NEW
, GRAV, 9.81, , -1.
** 
** OUTPUT REQUESTS
** 
*Restart, write, frequency=0
** 
** FIELD OUTPUT: FASEI_REV
** 
*Output, field, time points=timePoint
*Node Output, nset=PIPE_INST.FASEI_REV
NT, U
*Element Output, elset=PIPE_INST.FASEI_REV, directions=YES
E, MISES, PE, S, PEEQ
** 
** FIELD OUTPUT: ROCK_OUTPUT
** 
*Node Output, nset=ROCK_OUTPUT
U, 
*Element Output, elset=ROCK_OUTPUT, directions=YES
TEMP, 
*Output, history, frequency=0
*End Step
** ----------------------------------------------------------------
** 
** STEP: TempDefine
** 
*Step, name=TempDefine, nlgeom=YES
*Static
1., 3., 3e-05, 3.
** 
** LOADS
** 
** Name: GRAVITY   Type: Gravity
*Dload, op=NEW
, GRAV, 9.81, , -1.
** 
** OUTPUT REQUESTS
** 
*Restart, write, frequency=0
** 
** FIELD OUTPUT: FASEI_REV
** 
*Output, field, time points=timePoint
*Node Output, nset=PIPE_INST.FASEI_REV
NT, U
*Element Output, elset=PIPE_INST.FASEI_REV, directions=YES
E, MISES, PE, S, PEEQ
** 
** FIELD OUTPUT: ROCK_OUTPUT
** 
*Node Output, nset=ROCK_OUTPUT
U, 
*Element Output, elset=ROCK_OUTPUT, directions=YES
TEMP, 
*Output, history, frequency=0
*End Step
** ----------------------------------------------------------------
** 
** STEP: Perf_10_375
** 
*Step, name=Perf_10_375, nlgeom=YES
*Static
1., 1., 1e-05, 1.
** 
** BOUNDARY CONDITIONS
** 
** Name: FIX_FASEI_WELL Type: Symmetry/Antisymmetry/Encastre
*Boundary, op=NEW
** Name: PIN_FASEI Type: Symmetry/Antisymmetry/Encastre
*Boundary, op=NEW
PIPE_INST.FASEI_REV, PINNED
** Name: XSYM_ROCK_BC Type: Symmetry/Antisymmetry/Encastre
*Boundary, op=NEW
ROCK_BC, XSYMM
** Name: YSYM_BASE Type: Symmetry/Antisymmetry/Encastre
*Boundary, op=NEW
YSYM_BASE, YSYMM
** Name: YSYM_TOP Type: Symmetry/Antisymmetry/Encastre
*Boundary, op=NEW
YSYM_TOP, YSYMM
** 
** LOADS
** 
** Name: GRAVITY   Type: Gravity
*Dload, op=NEW
, GRAV, 9.81, , -1.
** Name: P_FASEI_OPEN_WELL   Type: Pressure Using Field: P_FASEI_OPEN_WELL
*Dload, op=NEW
ROCK_INST.24, P2, 3.69942e+07
ROCK_INST.48, P2, 3.70442e+07
ROCK_INST.72, P2, 3.70942e+07
ROCK_INST.96, P2, 3.71441e+07
ROCK_INST.120, P2, 3.71941e+07
ROCK_INST.144, P2, 3.7244e+07
ROCK_INST.168, P2, 3.7294e+07
ROCK_INST.192, P2, 3.73439e+07
ROCK_INST.216, P2, 3.73939e+07
ROCK_INST.240, P2, 3.74439e+07
ROCK_INST.264, P2, 3.74938e+07
ROCK_INST.288, P2, 3.75438e+07
ROCK_INST.312, P2, 3.75937e+07
ROCK_INST.336, P2, 3.76437e+07
ROCK_INST.360, P2, 3.76937e+07
ROCK_INST.384, P2, 3.77436e+07
ROCK_INST.408, P2, 3.77936e+07
ROCK_INST.432, P2, 3.78435e+07
ROCK_INST.456, P2, 3.78935e+07
ROCK_INST.480, P2, 3.79434e+07
** ... 60 like lines cut
** 
** OUTPUT REQUESTS
** 
*Restart, write, frequency=0
** 
** FIELD OUTPUT: FASEI_REV
** 
*Output, field, time points=timePoint
*Node Output, nset=PIPE_INST.FASEI_REV
NT, U
*Element Output, elset=PIPE_INST.FASEI_REV, directions=YES
E, MISES, PE, S, PEEQ
** 
** FIELD OUTPUT: ROCK_OUTPUT
** 
*Node Output, nset=ROCK_OUTPUT
U, 
*Element Output, elset=ROCK_OUTPUT, directions=YES
TEMP, 
*Output, history, frequency=0
*End Step
** ----------------------------------------------------------------
** 
** STEP: Perf_10_375_Creep
** 
*Step, name=Perf_10_375_Creep, nlgeom=YES, inc=1000000
*Visco, cetol=0.0001
1e-06, 172800., 1e-15, 172800.
** 
** LOADS
** 
** Name: GRAVITY   Type: Gravity
*Dload, op=NEW
, GRAV, 9.81, , -1.
** Name: P_FASEI_OPEN_WELL   Type: Pressure Using Field: P_FASEI_OPEN_WELL
*Dload, op=NEW
ROCK_INST.24, P2, 3.69942e+07
ROCK_INST.48, P2, 3.70442e+07
ROCK_INST.72, P2, 3.70942e+07
ROCK_INST.96, P2, 3.71441e+07
ROCK_INST.120, P2, 3.71941e+07
ROCK_INST.144, P2, 3.7244e+07
ROCK_INST.168, P2, 3.7294e+07
ROCK_INST.192, P2, 3.73439e+07
ROCK_INST.216, P2, 3.73939e+07
ROCK_INST.240, P2, 3.74439e+07
ROCK_INST.264, P2, 3.74938e+07
ROCK_INST.288, P2, 3.75438e+07
ROCK_INST.312, P2, 3.75937e+07
ROCK_INST.336, P2, 3.76437e+07
ROCK_INST.360, P2, 3.76937e+07
ROCK_INST.384, P2, 3.77436e+07
ROCK_INST.408, P2, 3.77936e+07
ROCK_INST.432, P2, 3.78435e+07
ROCK_INST.456, P2, 3.78935e+07
ROCK_INST.480, P2, 3.79434e+07
** ... 60 like lines cut
** 
** OUTPUT REQUESTS
** 
*Restart, write, frequency=0
** 
** FIELD OUTPUT: FASEI_REV
** 
*Output, field, time points=timePoint
*Node Output, nset=PIPE_INST.FASEI_REV
NT, U
*Element Output, elset=PIPE_INST.FASEI_REV, directions=YES
E, MISES, PE, S, PEEQ
** 
** FIELD OUTPUT: ROCK_OUTPUT
** 
*Node Output, nset=ROCK_OUTPUT
U, 
*Element Output, elset=ROCK_OUTPUT, directions=YES
TEMP, 
*Output, history, frequency=0
*End Step
** ----------------------------------------------------------------
** 
** STEP: Rev_9_875
** 
*Step, name=Rev_9_875, nlgeom=YES
*Static
1., 1., 1e-15, 1.
** 
** BOUNDARY CONDITIONS
** 
** Name: PIN_FASEI Type: Symmetry/Antisymmetry/Encastre
*Boundary, op=NEW
** Name: XSYM_ROCK_BC Type: Symmetry/Antisymmetry/Encastre
*Boundary, op=NEW
ROCK_BC, XSYMM
** Name: YSYM_BASE Type: Symmetry/Antisymmetry/Encastre
*Boundary, op=NEW
YSYM_BASE, YSYMM
** Name: YSYM_TOP Type: Symmetry/Antisymmetry/Encastre
*Boundary, op=NEW
YSYM_TOP, YSYMM
** 
** LOADS
** 
** Name: GRAVITY   Type: Gravity
*Dload, op=NEW
, GRAV, 9.81, , -1.
** Name: P_FASEI_COMPLETED_WELL   Type: Pressure Using Field: P_FASEI_COMPLETED_WELL
*Dload, op=NEW
PIPE_INST.3, P2, 3.69942e+07
PIPE_INST.6, P2, 3.70442e+07
PIPE_INST.9, P2, 3.70942e+07
PIPE_INST.12, P2, 3.71441e+07
PIPE_INST.15, P2, 3.71941e+07
PIPE_INST.18, P2, 3.7244e+07
PIPE_INST.21, P2, 3.7294e+07
PIPE_INST.24, P2, 3.73439e+07
PIPE_INST.27, P2, 3.73939e+07
PIPE_INST.30, P2, 3.74439e+07
PIPE_INST.33, P2, 3.74938e+07
PIPE_INST.36, P2, 3.75438e+07
PIPE_INST.39, P2, 3.75937e+07
PIPE_INST.42, P2, 3.76437e+07
PIPE_INST.45, P2, 3.76937e+07
PIPE_INST.48, P2, 3.77436e+07
PIPE_INST.51, P2, 3.77936e+07
PIPE_INST.54, P2, 3.78435e+07
PIPE_INST.57, P2, 3.78935e+07
PIPE_INST.60, P2, 3.79434e+07
** ... 60 like lines cut
** Name: P_FASEI_FLUID   Type: Pressure Using Field: P_FASEI_FLUID
*Dload, op=NEW
PIPE_INST.1, P4, 3.69942e+07
PIPE_INST.4, P4, 3.70442e+07
PIPE_INST.7, P4, 3.70942e+07
PIPE_INST.10, P4, 3.71441e+07
PIPE_INST.13, P4, 3.71941e+07
PIPE_INST.16, P4, 3.7244e+07
PIPE_INST.19, P4, 3.7294e+07
PIPE_INST.22, P4, 3.73439e+07
PIPE_INST.25, P4, 3.73939e+07
PIPE_INST.28, P4, 3.74439e+07
PIPE_INST.31, P4, 3.74938e+07
PIPE_INST.34, P4, 3.75438e+07
PIPE_INST.37, P4, 3.75937e+07
PIPE_INST.40, P4, 3.76437e+07
PIPE_INST.43, P4, 3.76937e+07
PIPE_INST.46, P4, 3.77436e+07
PIPE_INST.49, P4, 3.77936e+07
PIPE_INST.52, P4, 3.78435e+07
PIPE_INST.55, P4, 3.78935e+07
PIPE_INST.58, P4, 3.79434e+07
** ... 60 like lines cut
ROCK_INST.24, P2, 3.69942e+07
ROCK_INST.48, P2, 3.70442e+07
ROCK_INST.72, P2, 3.70942e+07
ROCK_INST.96, P2, 3.71441e+07
ROCK_INST.120, P2, 3.71941e+07
ROCK_INST.144, P2, 3.7244e+07
ROCK_INST.168, P2, 3.7294e+07
ROCK_INST.192, P2, 3.73439e+07
ROCK_INST.216, P2, 3.73939e+07
ROCK_INST.240, P2, 3.74439e+07
ROCK_INST.264, P2, 3.74938e+07
ROCK_INST.288, P2, 3.75438e+07
ROCK_INST.312, P2, 3.75937e+07
ROCK_INST.336, P2, 3.76437e+07
ROCK_INST.360, P2, 3.76937e+07
ROCK_INST.384, P2, 3.77436e+07
ROCK_INST.408, P2, 3.77936e+07
ROCK_INST.432, P2, 3.78435e+07
ROCK_INST.456, P2, 3.78935e+07
ROCK_INST.480, P2, 3.79434e+07
** ... 60 like lines cut
** Name: P_FASEI_OPEN_WELL   Type: Pressure Using Field: P_FASEI_OPEN_WELL
*Dload, op=NEW
** 
** INTERACTIONS
** 
** Interaction: C_FASEI
*Model Change, type=CONTACT PAIR, add
ROCK_INST_FASEI_SLAVE_CNS_, FASEI_MASTER
** Interaction: MC_FASEI_REV
*Model Change, add
PIPE_INST.FASEI_REV, 
** 
** OUTPUT REQUESTS
** 
*Restart, write, frequency=0
** 
** FIELD OUTPUT: FASEI_REV
** 
*Output, field, time points=timePoint
*Node Output, nset=PIPE_INST.FASEI_REV
NT, U
*Element Output, elset=PIPE_INST.FASEI_REV, directions=YES
E, MISES, PE, S, PEEQ
** 
** FIELD OUTPUT: ROCK_OUTPUT
** 
*Node Output, nset=ROCK_OUTPUT
U, 
*Element Output, elset=ROCK_OUTPUT, directions=YES
TEMP, 
*Output, history, frequency=0
*End Step
** ----------------------------------------------------------------
** 
** STEP: Rev_9_875_Creep
** 
*Step, name=Rev_9_875_Creep, nlgeom=YES, inc=1000000
*Visco, cetol=0.0001
1e-06, 9.4608e+08, 1e-15, 1.5552e+07
** 
** LOADS
** 
** Name: GRAVITY   Type: Gravity
*Dload, op=NEW
, GRAV, 9.81, , -1.
** Name: P_FASEI_COMPLETED_WELL   Type: Pressure Using Field: P_FASEI_COMPLETED_WELL
*Dload, op=NEW
PIPE_INST.3, P2, 3.69942e+07
PIPE_INST.6, P2, 3.70442e+07
PIPE_INST.9, P2, 3.70942e+07
PIPE_INST.12, P2, 3.71441e+07
PIPE_INST.15, P2, 3.71941e+07
PIPE_INST.18, P2, 3.7244e+07
PIPE_INST.21, P2, 3.7294e+07
PIPE_INST.24, P2, 3.73439e+07
PIPE_INST.27, P2, 3.73939e+07
PIPE_INST.30, P2, 3.74439e+07
PIPE_INST.33, P2, 3.74938e+07
PIPE_INST.36, P2, 3.75438e+07
PIPE_INST.39, P2, 3.75937e+07
PIPE_INST.42, P2, 3.76437e+07
PIPE_INST.45, P2, 3.76937e+07
PIPE_INST.48, P2, 3.77436e+07
PIPE_INST.51, P2, 3.77936e+07
PIPE_INST.54, P2, 3.78435e+07
PIPE_INST.57, P2, 3.78935e+07
PIPE_INST.60, P2, 3.79434e+07
** ... 60 like lines cut
** Name: P_FASEI_FLUID   Type: Pressure Using Field: P_FASEI_FLUID
*Dload, op=NEW
PIPE_INST.1, P4, 3.69942e+07
PIPE_INST.4, P4, 3.70442e+07
PIPE_INST.7, P4, 3.70942e+07
PIPE_INST.10, P4, 3.71441e+07
PIPE_INST.13, P4, 3.71941e+07
PIPE_INST.16, P4, 3.7244e+07
PIPE_INST.19, P4, 3.7294e+07
PIPE_INST.22, P4, 3.73439e+07
PIPE_INST.25, P4, 3.73939e+07
PIPE_INST.28, P4, 3.74439e+07
PIPE_INST.31, P4, 3.74938e+07
PIPE_INST.34, P4, 3.75438e+07
PIPE_INST.37, P4, 3.75937e+07
PIPE_INST.40, P4, 3.76437e+07
PIPE_INST.43, P4, 3.76937e+07
PIPE_INST.46, P4, 3.77436e+07
PIPE_INST.49, P4, 3.77936e+07
PIPE_INST.52, P4, 3.78435e+07
PIPE_INST.55, P4, 3.78935e+07
PIPE_INST.58, P4, 3.79434e+07
** ... 60 like lines cut
ROCK_INST.24, P2, 3.69942e+07
ROCK_INST.48, P2, 3.70442e+07
ROCK_INST.72, P2, 3.70942e+07
ROCK_INST.96, P2, 3.71441e+07
ROCK_INST.120, P2, 3.71941e+07
ROCK_INST.144, P2, 3.7244e+07
ROCK_INST.168, P2, 3.7294e+07
ROCK_INST.192, P2, 3.73439e+07
ROCK_INST.216, P2, 3.73939e+07
ROCK_INST.240, P2, 3.74439e+07
ROCK_INST.264, P2, 3.74938e+07
ROCK_INST.288, P2, 3.75438e+07
ROCK_INST.312, P2, 3.75937e+07
ROCK_INST.336, P2, 3.76437e+07
ROCK_INST.360, P2, 3.76937e+07
ROCK_INST.384, P2, 3.77436e+07
ROCK_INST.408, P2, 3.77936e+07
ROCK_INST.432, P2, 3.78435e+07
ROCK_INST.456, P2, 3.78935e+07
ROCK_INST.480, P2, 3.79434e+07
** ... 60 like lines cut
** 
** OUTPUT REQUESTS
** 
*Restart, write, frequency=0
** 
** FIELD OUTPUT: FASEI_REV
** 
*Output, field, time points=timePoint
*Node Output, nset=PIPE_INST.FASEI_REV
NT, U
*Element Output, elset=PIPE_INST.FASEI_REV, directions=YES
E, MISES, PE, S, PEEQ
** 
** FIELD OUTPUT: ROCK_OUTPUT
** 
*Node Output, nset=ROCK_OUTPUT
U, 
*Element Output, elset=ROCK_OUTPUT, directions=YES
TEMP, 
*Output, history, frequency=0
*End Step
