*Heading
** Job name: WellClosureJob Model name: MyFirstModel
** Generated by: Abaqus/CAE 2024
*Preprint, echo=NO, model=NO, history=NO, contact=NO
**
** PARTS
**
*Part, name=FLUID
*End Part
**  
*Part, name=PIPE
*End Part
**  
*Part, name=ROCK
*End Part
**  
**
** ASSEMBLY
**
*Assembly, name=Assembly
**  
*Instance, name=FLUID_INST, part=FLUID
*Node
      1,  0.155575007,       -3600.
      2,  0.125412494,       -3600.
      3,  0.125412494,       -4100.
      4,  0.155575007,       -4100.
      5,  0.155575007,       -2500.
      6,  0.125412494,       -2500.
      7,  0.151804686,       -3600.
      8,  0.148034379,       -3600.
      9,  0.144264057,       -3600.
     10,  0.140493751,       -3600.
     11,  0.136723444,       -3600.
     12,  0.132953122,       -3600.
     13,  0.129182816,       -3600.
     14,  0.125412494,       -3601.
     15,  0.125412494,  -3602.03662
     16,  0.125412494,  -3603.11108
     17,  0.125412494,  -3604.22485
     18,  0.125412494,  -3605.37939
     19,  0.125412494,  -3606.57593
     20,  0.125412494,  -3607.81641
** ... 3670 like lines cut
*Element, type=CAX4
   1,    1,    7,  842,  276
   2,    7,    8,  843,  842
   3,    8,    9,  844,  843
   4,    9,   10,  845,  844
   5,   10,   11,  846,  845
   6,   11,   12,  847,  846
   7,   12,   13,  848,  847
   8,   13,    2,   14,  848
   9,  276,  842,  849,  275
  10,  842,  843,  850,  849
  11,  843,  844,  851,  850
  12,  844,  845,  852,  851
  13,  845,  846,  853,  852
  14,  846,  847,  854,  853
  15,  847,  848,  855,  854
  16,  848,   14,   15,  855
  17,  275,  849,  856,  274
  18,  849,  850,  857,  856
  19,  850,  851,  858,  857
  20,  851,  852,  859,  858
** ... 3252 like lines cut
*Nset, nset=FASEI_FLUIDO, generate
    1,  3690,     1
*Elset, elset=FASEI_FLUIDO, generate
    1,  3272,     1
*Nset, nset=FASEI_FLUIDO_BASE
   3,   4, 142, 143, 144, 145, 146, 147, 148
*Elset, elset=FASEI_FLUIDO_BASE, generate
 1025,  1032,     1
*Nset, nset=FASEI_FLUIDO_ID
   2,   3,   6,  14,  15,  16,  17,  18,  19,  20,  21,  22,  23,  24,  25,  26
  27,  28,  29,  30,  31,  32,  33,  34,  35,  36,  37,  38,  39,  40,  41,  42
  43,  44,  45,  46,  47,  48,  49,  50,  51,  52,  53,  54,  55,  56,  57,  58
  59,  60,  61,  62,  63,  64,  65,  66,  67,  68,  69,  70,  71,  72,  73,  74
  75,  76,  77,  78,  79,  80,  81,  82,  83,  84,  85,  86,  87,  88,  89,  90
  91,  92,  93,  94,  95,  96,  97,  98,  99, 100, 101, 102, 103, 104, 105, 106
 107, 108, 109, 110, 111, 112, 113, 114, 115, 116, 117, 118, 119, 120, 121, 122
 123, 124, 125, 126, 127, 128, 129, 130, 131, 132, 133, 134, 135, 136, 137, 138
 139, 140, 141, 563, 564, 565, 566, 567, 568, 569, 570, 571, 572, 573, 574, 575
 576, 577, 578, 579, 580, 581, 582, 583, 584, 585, 586, 587, 588, 589, 590, 591
 592, 593, 594, 595, 596, 597, 598, 599, 600, 601, 602, 603, 604, 605, 606, 607
 608, 609, 610, 611, 612, 613, 614, 615, 616, 617, 618, 619, 620, 621, 622, 623
 624, 625, 626, 627, 628, 629, 630, 631, 632, 633, 634, 635, 636, 637, 638, 639
 640, 641, 642, 643, 644, 645, 646, 647, 648, 649, 650, 651, 652, 653, 654, 655
 656, 657, 658, 659, 660, 661, 662, 663, 664, 665, 666, 667, 668, 669, 670, 671
 672, 673, 674, 675, 676, 677, 678, 679, 680, 681, 682, 683, 684, 685, 686, 687
 688, 689, 690, 691, 692, 693, 694, 695, 696, 697, 698, 699, 700, 701, 702, 703
 704, 705, 706, 707, 708, 709, 710, 711, 712, 713, 714, 715, 716, 717, 718, 719
 720, 721, 722, 723, 724, 725, 726, 727, 728, 729, 730, 731, 732, 733, 734, 735
 736, 737, 738, 739, 740, 741, 742, 743, 744, 745, 746, 747, 748, 749, 750, 751
** ... 6 like lines cut
*Elset, elset=FASEI_FLUIDO_ID
    8,   16,   24,   32,   40,   48,   56,   64,   72,   80,   88,   96,  104,  112,  120,  128
  136,  144,  152,  160,  168,  176,  184,  192,  200,  208,  216,  224,  232,  240,  248,  256
  264,  272,  280,  288,  296,  304,  312,  320,  328,  336,  344,  352,  360,  368,  376,  384
  392,  400,  408,  416,  424,  432,  440,  448,  456,  464,  472,  480,  488,  496,  504,  512
  520,  528,  536,  544,  552,  560,  568,  576,  584,  592,  600,  608,  616,  624,  632,  640
  648,  656,  664,  672,  680,  688,  696,  704,  712,  720,  728,  736,  744,  752,  760,  768
  776,  784,  792,  800,  808,  816,  824,  832,  840,  848,  856,  864,  872,  880,  888,  896
  904,  912,  920,  928,  936,  944,  952,  960,  968,  976,  984,  992, 1000, 1008, 1016, 1024
 1032, 1033, 1041, 1049, 1057, 1065, 1073, 1081, 1089, 1097, 1105, 1113, 1121, 1129, 1137, 1145
 1153, 1161, 1169, 1177, 1185, 1193, 1201, 1209, 1217, 1225, 1233, 1241, 1249, 1257, 1265, 1273
 1281, 1289, 1297, 1305, 1313, 1321, 1329, 1337, 1345, 1353, 1361, 1369, 1377, 1385, 1393, 1401
 1409, 1417, 1425, 1433, 1441, 1449, 1457, 1465, 1473, 1481, 1489, 1497, 1505, 1513, 1521, 1529
 1537, 1545, 1553, 1561, 1569, 1577, 1585, 1593, 1601, 1609, 1617, 1625, 1633, 1641, 1649, 1657
 1665, 1673, 1681, 1689, 1697, 1705, 1713, 1721, 1729, 1737, 1745, 1753, 1761, 1769, 1777, 1785
 1793, 1801, 1809, 1817, 1825, 1833, 1841, 1849, 1857, 1865, 1873, 1881, 1889, 1897, 1905, 1913
 1921, 1929, 1937, 1945, 1953, 1961, 1969, 1977, 1985, 1993, 2001, 2009, 2017, 2025, 2033, 2041
 2049, 2057, 2065, 2073, 2081, 2089, 2097, 2105, 2113, 2121, 2129, 2137, 2145, 2153, 2161, 2169
 2177, 2185, 2193, 2201, 2209, 2217, 2225, 2233, 2241, 2249, 2257, 2265, 2273, 2281, 2289, 2297
 2305, 2313, 2321, 2329, 2337, 2345, 2353, 2361, 2369, 2377, 2385, 2393, 2401, 2409, 2417, 2425
 2433, 2441, 2449, 2457, 2465, 2473, 2481, 2489, 2497, 2505, 2513, 2521, 2529, 2537, 2545, 2553
** ... 6 like lines cut
*Nset, nset=FASEI_FLUIDO_OD
   1,   4,   5, 149, 150, 151, 152, 153, 154, 155, 156, 157, 158, 159, 160, 161
 162, 163, 164, 165, 166, 167, 168, 169, 170, 171, 172, 173, 174, 175, 176, 177
 178, 179, 180, 181, 182, 183, 184, 185, 186, 187, 188, 189, 190, 191, 192, 193
 194, 195, 196, 197, 198, 199, 200, 201, 202, 203, 204, 205, 206, 207, 208, 209
 210, 211, 212, 213, 214, 215, 216, 217, 218, 219, 220, 221, 222, 223, 224, 225
 226, 227, 228, 229, 230, 231, 232, 233, 234, 235, 236, 237, 238, 239, 240, 241
 242, 243, 244, 245, 246, 247, 248, 249, 250, 251, 252, 253, 254, 255, 256, 257
 258, 259, 260, 261, 262, 263, 264, 265, 266, 267, 268, 269, 270, 271, 272, 273
 274, 275, 276, 277, 278, 279, 280, 281, 282, 283, 284, 285, 286, 287, 288, 289
 290, 291, 292, 293, 294, 295, 296, 297, 298, 299, 300, 301, 302, 303, 304, 305
 306, 307, 308, 309, 310, 311, 312, 313, 314, 315, 316, 317, 318, 319, 320, 321
 322, 323, 324, 325, 326, 327, 328, 329, 330, 331, 332, 333, 334, 335, 336, 337
 338, 339, 340, 341, 342, 343, 344, 345, 346, 347, 348, 349, 350, 351, 352, 353
 354, 355, 356, 357, 358, 359, 360, 361, 362, 363, 364, 365, 366, 367, 368, 369
 370, 371, 372, 373, 374, 375, 376, 377, 378, 379, 380, 381, 382, 383, 384, 385
 386, 387, 388, 389, 390, 391, 392, 393, 394, 395, 396, 397, 398, 399, 400, 401
 402, 403, 404, 405, 406, 407, 408, 409, 410, 411, 412, 413, 414, 415, 416, 417
 418, 419, 420, 421, 422, 423, 424, 425, 426, 427, 428, 429, 430, 431, 432, 433
 434, 435, 436, 437, 438, 439, 440, 441, 442, 443, 444, 445, 446, 447, 448, 449
 450, 451, 452, 453, 454, 455, 456, 457, 458, 459, 460, 461, 462, 463, 464, 465
** ... 6 like lines cut
*Elset, elset=FASEI_FLUIDO_OD
    1,    9,   17,   25,   33,   41,   49,   57,   65,   73,   81,   89,   97,  105,  113,  121
  129,  137,  145,  153,  161,  169,  177,  185,  193,  201,  209,  217,  225,  233,  241,  249
  257,  265,  273,  281,  289,  297,  305,  313,  321,  329,  337,  345,  353,  361,  369,  377
  385,  393,  401,  409,  417,  425,  433,  441,  449,  457,  465,  473,  481,  489,  497,  505
  513,  521,  529,  537,  545,  553,  561,  569,  577,  585,  593,  601,  609,  617,  625,  633
  641,  649,  657,  665,  673,  681,  689,  697,  705,  713,  721,  729,  737,  745,  753,  761
  769,  777,  785,  793,  801,  809,  817,  825,  833,  841,  849,  857,  865,  873,  881,  889
  897,  905,  913,  921,  929,  937,  945,  953,  961,  969,  977,  985,  993, 1001, 1009, 1017
 1025, 1040, 1048, 1056, 1064, 1072, 1080, 1088, 1096, 1104, 1112, 1120, 1128, 1136, 1144, 1152
 1160, 1168, 1176, 1184, 1192, 1200, 1208, 1216, 1224, 1232, 1240, 1248, 1256, 1264, 1272, 1280
 1288, 1296, 1304, 1312, 1320, 1328, 1336, 1344, 1352, 1360, 1368, 1376, 1384, 1392, 1400, 1408
 1416, 1424, 1432, 1440, 1448, 1456, 1464, 1472, 1480, 1488, 1496, 1504, 1512, 1520, 1528, 1536
 1544, 1552, 1560, 1568, 1576, 1584, 1592, 1600, 1608, 1616, 1624, 1632, 1640, 1648, 1656, 1664
 1672, 1680, 1688, 1696, 1704, 1712, 1720, 1728, 1736, 1744, 1752, 1760, 1768, 1776, 1784, 1792
 1800, 1808, 1816, 1824, 1832, 1840, 1848, 1856, 1864, 1872, 1880, 1888, 1896, 1904, 1912, 1920
 1928, 1936, 1944, 1952, 1960, 1968, 1976, 1984, 1992, 2000, 2008, 2016, 2024, 2032, 2040, 2048
 2056, 2064, 2072, 2080, 2088, 2096, 2104, 2112, 2120, 2128, 2136, 2144, 2152, 2160, 2168, 2176
 2184, 2192, 2200, 2208, 2216, 2224, 2232, 2240, 2248, 2256, 2264, 2272, 2280, 2288, 2296, 2304
 2312, 2320, 2328, 2336, 2344, 2352, 2360, 2368, 2376, 2384, 2392, 2400, 2408, 2416, 2424, 2432
 2440, 2448, 2456, 2464, 2472, 2480, 2488, 2496, 2504, 2512, 2520, 2528, 2536, 2544, 2552, 2560
** ... 6 like lines cut
*Nset, nset=FASEI_FLUIDO_TOP
   5,   6, 556, 557, 558, 559, 560, 561, 562
*Elset, elset=FASEI_FLUIDO_TOP, generate
 3265,  3272,     1
*Nset, nset=FASEI_ANNULAR, generate
    1,  3690,     1
*Elset, elset=FASEI_ANNULAR, generate
    1,  3272,     1
*Nset, nset=FASEI_ANNULAR_BASE
   3,   4, 142, 143, 144, 145, 146, 147, 148
*Elset, elset=FASEI_ANNULAR_BASE, generate
 1025,  1032,     1
*Nset, nset=FASEI_ANNULAR_ID
   2,   3,   6,  14,  15,  16,  17,  18,  19,  20,  21,  22,  23,  24,  25,  26
  27,  28,  29,  30,  31,  32,  33,  34,  35,  36,  37,  38,  39,  40,  41,  42
  43,  44,  45,  46,  47,  48,  49,  50,  51,  52,  53,  54,  55,  56,  57,  58
  59,  60,  61,  62,  63,  64,  65,  66,  67,  68,  69,  70,  71,  72,  73,  74
  75,  76,  77,  78,  79,  80,  81,  82,  83,  84,  85,  86,  87,  88,  89,  90
  91,  92,  93,  94,  95,  96,  97,  98,  99, 100, 101, 102, 103, 104, 105, 106
 107, 108, 109, 110, 111, 112, 113, 114, 115, 116, 117, 118, 119, 120, 121, 122
 123, 124, 125, 126, 127, 128, 129, 130, 131, 132, 133, 134, 135, 136, 137, 138
 139, 140, 141, 563, 564, 565, 566, 567, 568, 569, 570, 571, 572, 573, 574, 575
 576, 577, 578, 579, 580, 581, 582, 583, 584, 585, 586, 587, 588, 589, 590, 591
 592, 593, 594, 595, 596, 597, 598, 599, 600, 601, 602, 603, 604, 605, 606, 607
 608, 609, 610, 611, 612, 613, 614, 615, 616, 617, 618, 619, 620, 621, 622, 623
 624, 625, 626, 627, 628, 629, 630, 631, 632, 633, 634, 635, 636, 637, 638, 639
 640, 641, 642, 643, 644, 645, 646, 647, 648, 649, 650, 651, 652, 653, 654, 655
 656, 657, 658, 659, 660, 661, 662, 663, 664, 665, 666, 667, 668, 669, 670, 671
 672, 673, 674, 675, 676, 677, 678, 679, 680, 681, 682, 683, 684, 685, 686, 687
 688, 689, 690, 691, 692, 693, 694, 695, 696, 697, 698, 699, 700, 701, 702, 703
 704, 705, 706, 707, 708, 709, 710, 711, 712, 713, 714, 715, 716, 717, 718, 719
 720, 721, 722, 723, 724, 725, 726, 727, 728, 729, 730, 731, 732, 733, 734, 735
 736, 737, 738, 739, 740, 741, 742, 743, 744, 745, 746, 747, 748, 749, 750, 751
** ... 6 like lines cut
*Elset, elset=FASEI_ANNULAR_ID
    8,   16,   24,   32,   40,   48,   56,   64,   72,   80,   88,   96,  104,  112,  120,  128
  136,  144,  152,  160,  168,  176,  184,  192,  200,  208,  216,  224,  232,  240,  248,  256
  264,  272,  280,  288,  296,  304,  312,  320,  328,  336,  344,  352,  360,  368,  376,  384
  392,  400,  408,  416,  424,  432,  440,  448,  456,  464,  472,  480,  488,  496,  504,  512
  520,  528,  536,  544,  552,  560,  568,  576,  584,  592,  600,  608,  616,  624,  632,  640
  648,  656,  664,  672,  680,  688,  696,  704,  712,  720,  728,  736,  744,  752,  760,  768
  776,  784,  792,  800,  808,  816,  824,  832,  840,  848,  856,  864,  872,  880,  888,  896
  904,  912,  920,  928,  936,  944,  952,  960,  968,  976,  984,  992, 1000, 1008, 1016, 1024
 1032, 1033, 1041, 1049, 1057, 1065, 1073, 1081, 1089, 1097, 1105, 1113, 1121, 1129, 1137, 1145
 1153, 1161, 1169, 1177, 1185, 1193, 1201, 1209, 1217, 1225, 1233, 1241, 1249, 1257, 1265, 1273
 1281, 1289, 1297, 1305, 1313, 1321, 1329, 1337, 1345, 1353, 1361, 1369, 1377, 1385, 1393, 1401
 1409, 1417, 1425, 1433, 1441, 1449, 1457, 1465, 1473, 1481, 1489, 1497, 1505, 1513, 1521, 1529
 1537, 1545, 1553, 1561, 1569, 1577, 1585, 1593, 1601, 1609, 1617, 1625, 1633, 1641, 1649, 1657
 1665, 1673, 1681, 1689, 1697, 1705, 1713, 1721, 1729, 1737, 1745, 1753, 1761, 1769, 1777, 1785
 1793, 1801, 1809, 1817, 1825, 1833, 1841, 1849, 1857, 1865, 1873, 1881, 1889, 1897, 1905, 1913
 1921, 1929, 1937, 1945, 1953, 1961, 1969, 1977, 1985, 1993, 2001, 2009, 2017, 2025, 2033, 2041
 2049, 2057, 2065, 2073, 2081, 2089, 2097, 2105, 2113, 2121, 2129, 2137, 2145, 2153, 2161, 2169
 2177, 2185, 2193, 2201, 2209, 2217, 2225, 2233, 2241, 2249, 2257, 2265, 2273, 2281, 2289, 2297
 2305, 2313, 2321, 2329, 2337, 2345, 2353, 2361, 2369, 2377, 2385, 2393, 2401, 2409, 2417, 2425
 2433, 2441, 2449, 2457, 2465, 2473, 2481, 2489, 2497, 2505, 2513, 2521, 2529, 2537, 2545, 2553
** ... 6 like lines cut
*Nset, nset=FASEI_ANNULAR_OD
   1,   4,   5, 149, 150, 151, 152, 153, 154, 155, 156, 157, 158, 159, 160, 161
 162, 163, 164, 165, 166, 167, 168, 169, 170, 171, 172, 173, 174, 175, 176, 177
 178, 179, 180, 181, 182, 183, 184, 185, 186, 187, 188, 189, 190, 191, 192, 193
 194, 195, 196, 197, 198, 199, 200, 201, 202, 203, 204, 205, 206, 207, 208, 209
 210, 211, 212, 213, 214, 215, 216, 217, 218, 219, 220, 221, 222, 223, 224, 225
 226, 227, 228, 229, 230, 231, 232, 233, 234, 235, 236, 237, 238, 239, 240, 241
 242, 243, 244, 245, 246, 247, 248, 249, 250, 251, 252, 253, 254, 255, 256, 257
 258, 259, 260, 261, 262, 263, 264, 265, 266, 267, 268, 269, 270, 271, 272, 273
 274, 275, 276, 277, 278, 279, 280, 281, 282, 283, 284, 285, 286, 287, 288, 289
 290, 291, 292, 293, 294, 295, 296, 297, 298, 299, 300, 301, 302, 303, 304, 305
 306, 307, 308, 309, 310, 311, 312, 313, 314, 315, 316, 317, 318, 319, 320, 321
 322, 323, 324, 325, 326, 327, 328, 329, 330, 331, 332, 333, 334, 335, 336, 337
 338, 339, 340, 341, 342, 343, 344, 345, 346, 347, 348, 349, 350, 351, 352, 353
 354, 355, 356, 357, 358, 359, 360, 361, 362, 363, 364, 365, 366, 367, 368, 369
 370, 371, 372, 373, 374, 375, 376, 377, 378, 379, 380, 381, 382, 383, 384, 385
 386, 387, 388, 389, 390, 391, 392, 393, 394, 395, 396, 397, 398, 399, 400, 401
 402, 403, 404, 405, 406, 407, 408, 409, 410, 411, 412, 413, 414, 415, 416, 417
 418, 419, 420, 421, 422, 423, 424, 425, 426, 427, 428, 429, 430, 431, 432, 433
 434, 435, 436, 437, 438, 439, 440, 441, 442, 443, 444, 445, 446, 447, 448, 449
 450, 451, 452, 453, 454, 455, 456, 457, 458, 459, 460, 461, 462, 463, 464, 465
** ... 6 like lines cut
*Elset, elset=FASEI_ANNULAR_OD
    1,    9,   17,   25,   33,   41,   49,   57,   65,   73,   81,   89,   97,  105,  113,  121
  129,  137,  145,  153,  161,  169,  177,  185,  193,  201,  209,  217,  225,  233,  241,  249
  257,  265,  273,  281,  289,  297,  305,  313,  321,  329,  337,  345,  353,  361,  369,  377
  385,  393,  401,  409,  417,  425,  433,  441,  449,  457,  465,  473,  481,  489,  497,  505
  513,  521,  529,  537,  545,  553,  561,  569,  577,  585,  593,  601,  609,  617,  625,  633
  641,  649,  657,  665,  673,  681,  689,  697,  705,  713,  721,  729,  737,  745,  753,  761
  769,  777,  785,  793,  801,  809,  817,  825,  833,  841,  849,  857,  865,  873,  881,  889
  897,  905,  913,  921,  929,  937,  945,  953,  961,  969,  977,  985,  993, 1001, 1009, 1017
 1025, 1040, 1048, 1056, 1064, 1072, 1080, 1088, 1096, 1104, 1112, 1120, 1128, 1136, 1144, 1152
 1160, 1168, 1176, 1184, 1192, 1200, 1208, 1216, 1224, 1232, 1240, 1248, 1256, 1264, 1272, 1280
 1288, 1296, 1304, 1312, 1320, 1328, 1336, 1344, 1352, 1360, 1368, 1376, 1384, 1392, 1400, 1408
 1416, 1424, 1432, 1440, 1448, 1456, 1464, 1472, 1480, 1488, 1496, 1504, 1512, 1520, 1528, 1536
 1544, 1552, 1560, 1568, 1576, 1584, 1592, 1600, 1608, 1616, 1624, 1632, 1640, 1648, 1656, 1664
 1672, 1680, 1688, 1696, 1704, 1712, 1720, 1728, 1736, 1744, 1752, 1760, 1768, 1776, 1784, 1792
 1800, 1808, 1816, 1824, 1832, 1840, 1848, 1856, 1864, 1872, 1880, 1888, 1896, 1904, 1912, 1920
 1928, 1936, 1944, 1952, 1960, 1968, 1976, 1984, 1992, 2000, 2008, 2016, 2024, 2032, 2040, 2048
 2056, 2064, 2072, 2080, 2088, 2096, 2104, 2112, 2120, 2128, 2136, 2144, 2152, 2160, 2168, 2176
 2184, 2192, 2200, 2208, 2216, 2224, 2232, 2240, 2248, 2256, 2264, 2272, 2280, 2288, 2296, 2304
 2312, 2320, 2328, 2336, 2344, 2352, 2360, 2368, 2376, 2384, 2392, 2400, 2408, 2416, 2424, 2432
 2440, 2448, 2456, 2464, 2472, 2480, 2488, 2496, 2504, 2512, 2520, 2528, 2536, 2544, 2552, 2560
** ... 6 like lines cut
*Nset, nset=FASEI_ANNULAR_TOP
   5,   6, 556, 557, 558, 559, 560, 561, 562
*Elset, elset=FASEI_ANNULAR_TOP, generate
 3265,  3272,     1
*Nset, nset=FASEI_ANNULAR_TT
   1,   2,   3,   4,   5,   6,   7,   8,   9,  10,  11,  12,  13, 142, 143, 144
 145, 146, 147, 148, 556, 557, 558, 559, 560, 561, 562
*Elset, elset=FASEI_ANNULAR_TT
    1,    2,    3,    4,    5,    6,    7,    8, 1025, 1026, 1027, 1028, 1029, 1030, 1031, 1032
 1033, 1034, 1035, 1036, 1037, 1038, 1039, 1040, 3265, 3266, 3267, 3268, 3269, 3270, 3271, 3272
** Section: FLUID_Section
*Solid Section, elset=FASEI_FLUIDO, material=FLUID
1.,
*End Instance
**  
*Instance, name=PIPE_INST, part=PIPE
*Node
      1,  0.125412494,       -3600.
      2,  0.109537497,       -3600.
      3,  0.109537497,       -4100.
      4,  0.125412494,       -4100.
      5,  0.125412494,       -2500.
      6,  0.109537497,       -2500.
      7,  0.121443748,       -3600.
      8,  0.117475003,       -3600.
      9,   0.11350625,       -3600.
     10,  0.109537497,       -3601.
     11,  0.109537497,  -3602.03662
     12,  0.109537497,  -3603.11108
     13,  0.109537497,  -3604.22485
     14,  0.109537497,  -3605.37939
     15,  0.109537497,  -3606.57593
     16,  0.109537497,  -3607.81641
     17,  0.109537497,  -3609.10229
     18,  0.109537497,  -3610.43506
     19,  0.109537497,  -3611.81665
     20,  0.109537497,  -3613.24878
** ... 2030 like lines cut
*Element, type=CAX4
  1,    1,    7,  830,  268
  2,    7,    8,  831,  830
  3,    8,    9,  832,  831
  4,    9,    2,   10,  832
  5,  268,  830,  833,  267
  6,  830,  831,  834,  833
  7,  831,  832,  835,  834
  8,  832,   10,   11,  835
  9,  267,  833,  836,  266
 10,  833,  834,  837,  836
 11,  834,  835,  838,  837
 12,  835,   11,   12,  838
 13,  266,  836,  839,  265
 14,  836,  837,  840,  839
 15,  837,  838,  841,  840
 16,  838,   12,   13,  841
 17,  265,  839,  842,  264
 18,  839,  840,  843,  842
 19,  840,  841,  844,  843
 20,  841,   13,   14,  844
** ... 1616 like lines cut
*Nset, nset=FASEI_REV, generate
    1,  2050,     1
*Elset, elset=FASEI_REV, generate
    1,  1636,     1
*Nset, nset=FASEI_REV_ABOVE_TOC, generate
    1,  2050,     1
*Elset, elset=FASEI_REV_ABOVE_TOC, generate
    1,  1636,     1
*Nset, nset=FASEI_REV_BASE
   3,   4, 138, 139, 140
*Elset, elset=FASEI_REV_BASE, generate
 513,  516,    1
*Nset, nset=FASEI_REV_ID
   2,   3,   6,  10,  11,  12,  13,  14,  15,  16,  17,  18,  19,  20,  21,  22
  23,  24,  25,  26,  27,  28,  29,  30,  31,  32,  33,  34,  35,  36,  37,  38
  39,  40,  41,  42,  43,  44,  45,  46,  47,  48,  49,  50,  51,  52,  53,  54
  55,  56,  57,  58,  59,  60,  61,  62,  63,  64,  65,  66,  67,  68,  69,  70
  71,  72,  73,  74,  75,  76,  77,  78,  79,  80,  81,  82,  83,  84,  85,  86
  87,  88,  89,  90,  91,  92,  93,  94,  95,  96,  97,  98,  99, 100, 101, 102
 103, 104, 105, 106, 107, 108, 109, 110, 111, 112, 113, 114, 115, 116, 117, 118
 119, 120, 121, 122, 123, 124, 125, 126, 127, 128, 129, 130, 131, 132, 133, 134
 135, 136, 137, 551, 552, 553, 554, 555, 556, 557, 558, 559, 560, 561, 562, 563
 564, 565, 566, 567, 568, 569, 570, 571, 572, 573, 574, 575, 576, 577, 578, 579
 580, 581, 582, 583, 584, 585, 586, 587, 588, 589, 590, 591, 592, 593, 594, 595
 596, 597, 598, 599, 600, 601, 602, 603, 604, 605, 606, 607, 608, 609, 610, 611
 612, 613, 614, 615, 616, 617, 618, 619, 620, 621, 622, 623, 624, 625, 626, 627
 628, 629, 630, 631, 632, 633, 634, 635, 636, 637, 638, 639, 640, 641, 642, 643
 644, 645, 646, 647, 648, 649, 650, 651, 652, 653, 654, 655, 656, 657, 658, 659
 660, 661, 662, 663, 664, 665, 666, 667, 668, 669, 670, 671, 672, 673, 674, 675
 676, 677, 678, 679, 680, 681, 682, 683, 684, 685, 686, 687, 688, 689, 690, 691
 692, 693, 694, 695, 696, 697, 698, 699, 700, 701, 702, 703, 704, 705, 706, 707
 708, 709, 710, 711, 712, 713, 714, 715, 716, 717, 718, 719, 720, 721, 722, 723
 724, 725, 726, 727, 728, 729, 730, 731, 732, 733, 734, 735, 736, 737, 738, 739
** ... 6 like lines cut
*Elset, elset=FASEI_REV_ID
    4,    8,   12,   16,   20,   24,   28,   32,   36,   40,   44,   48,   52,   56,   60,   64
   68,   72,   76,   80,   84,   88,   92,   96,  100,  104,  108,  112,  116,  120,  124,  128
  132,  136,  140,  144,  148,  152,  156,  160,  164,  168,  172,  176,  180,  184,  188,  192
  196,  200,  204,  208,  212,  216,  220,  224,  228,  232,  236,  240,  244,  248,  252,  256
  260,  264,  268,  272,  276,  280,  284,  288,  292,  296,  300,  304,  308,  312,  316,  320
  324,  328,  332,  336,  340,  344,  348,  352,  356,  360,  364,  368,  372,  376,  380,  384
  388,  392,  396,  400,  404,  408,  412,  416,  420,  424,  428,  432,  436,  440,  444,  448
  452,  456,  460,  464,  468,  472,  476,  480,  484,  488,  492,  496,  500,  504,  508,  512
  516,  517,  521,  525,  529,  533,  537,  541,  545,  549,  553,  557,  561,  565,  569,  573
  577,  581,  585,  589,  593,  597,  601,  605,  609,  613,  617,  621,  625,  629,  633,  637
  641,  645,  649,  653,  657,  661,  665,  669,  673,  677,  681,  685,  689,  693,  697,  701
  705,  709,  713,  717,  721,  725,  729,  733,  737,  741,  745,  749,  753,  757,  761,  765
  769,  773,  777,  781,  785,  789,  793,  797,  801,  805,  809,  813,  817,  821,  825,  829
  833,  837,  841,  845,  849,  853,  857,  861,  865,  869,  873,  877,  881,  885,  889,  893
  897,  901,  905,  909,  913,  917,  921,  925,  929,  933,  937,  941,  945,  949,  953,  957
  961,  965,  969,  973,  977,  981,  985,  989,  993,  997, 1001, 1005, 1009, 1013, 1017, 1021
 1025, 1029, 1033, 1037, 1041, 1045, 1049, 1053, 1057, 1061, 1065, 1069, 1073, 1077, 1081, 1085
 1089, 1093, 1097, 1101, 1105, 1109, 1113, 1117, 1121, 1125, 1129, 1133, 1137, 1141, 1145, 1149
 1153, 1157, 1161, 1165, 1169, 1173, 1177, 1181, 1185, 1189, 1193, 1197, 1201, 1205, 1209, 1213
 1217, 1221, 1225, 1229, 1233, 1237, 1241, 1245, 1249, 1253, 1257, 1261, 1265, 1269, 1273, 1277
** ... 6 like lines cut
*Nset, nset=FASEI_REV_OD
   1,   4,   5, 141, 142, 143, 144, 145, 146, 147, 148, 149, 150, 151, 152, 153
 154, 155, 156, 157, 158, 159, 160, 161, 162, 163, 164, 165, 166, 167, 168, 169
 170, 171, 172, 173, 174, 175, 176, 177, 178, 179, 180, 181, 182, 183, 184, 185
 186, 187, 188, 189, 190, 191, 192, 193, 194, 195, 196, 197, 198, 199, 200, 201
 202, 203, 204, 205, 206, 207, 208, 209, 210, 211, 212, 213, 214, 215, 216, 217
 218, 219, 220, 221, 222, 223, 224, 225, 226, 227, 228, 229, 230, 231, 232, 233
 234, 235, 236, 237, 238, 239, 240, 241, 242, 243, 244, 245, 246, 247, 248, 249
 250, 251, 252, 253, 254, 255, 256, 257, 258, 259, 260, 261, 262, 263, 264, 265
 266, 267, 268, 269, 270, 271, 272, 273, 274, 275, 276, 277, 278, 279, 280, 281
 282, 283, 284, 285, 286, 287, 288, 289, 290, 291, 292, 293, 294, 295, 296, 297
 298, 299, 300, 301, 302, 303, 304, 305, 306, 307, 308, 309, 310, 311, 312, 313
 314, 315, 316, 317, 318, 319, 320, 321, 322, 323, 324, 325, 326, 327, 328, 329
 330, 331, 332, 333, 334, 335, 336, 337, 338, 339, 340, 341, 342, 343, 344, 345
 346, 347, 348, 349, 350, 351, 352, 353, 354, 355, 356, 357, 358, 359, 360, 361
 362, 363, 364, 365, 366, 367, 368, 369, 370, 371, 372, 373, 374, 375, 376, 377
 378, 379, 380, 381, 382, 383, 384, 385, 386, 387, 388, 389, 390, 391, 392, 393
 394, 395, 396, 397, 398, 399, 400, 401, 402, 403, 404, 405, 406, 407, 408, 409
 410, 411, 412, 413, 414, 415, 416, 417, 418, 419, 420, 421, 422, 423, 424, 425
 426, 427, 428, 429, 430, 431, 432, 433, 434, 435, 436, 437, 438, 439, 440, 441
 442, 443, 444, 445, 446, 447, 448, 449, 450, 451, 452, 453, 454, 455, 456, 457
** ... 6 like lines cut
*Elset, elset=FASEI_REV_OD
    1,    5,    9,   13,   17,   21,   25,   29,   33,   37,   41,   45,   49,   53,   57,   61
   65,   69,   73,   77,   81,   85,   89,   93,   97,  101,  105,  109,  113,  117,  121,  125
  129,  133,  137,  141,  145,  149,  153,  157,  161,  165,  169,  173,  177,  181,  185,  189
  193,  197,  201,  205,  209,  213,  217,  221,  225,  229,  233,  237,  241,  245,  249,  253
  257,  261,  265,  269,  273,  277,  281,  285,  289,  293,  297,  301,  305,  309,  313,  317
  321,  325,  329,  333,  337,  341,  345,  349,  353,  357,  361,  365,  369,  373,  377,  381
  385,  389,  393,  397,  401,  405,  409,  413,  417,  421,  425,  429,  433,  437,  441,  445
  449,  453,  457,  461,  465,  469,  473,  477,  481,  485,  489,  493,  497,  501,  505,  509
  513,  520,  524,  528,  532,  536,  540,  544,  548,  552,  556,  560,  564,  568,  572,  576
  580,  584,  588,  592,  596,  600,  604,  608,  612,  616,  620,  624,  628,  632,  636,  640
  644,  648,  652,  656,  660,  664,  668,  672,  676,  680,  684,  688,  692,  696,  700,  704
  708,  712,  716,  720,  724,  728,  732,  736,  740,  744,  748,  752,  756,  760,  764,  768
  772,  776,  780,  784,  788,  792,  796,  800,  804,  808,  812,  816,  820,  824,  828,  832
  836,  840,  844,  848,  852,  856,  860,  864,  868,  872,  876,  880,  884,  888,  892,  896
  900,  904,  908,  912,  916,  920,  924,  928,  932,  936,  940,  944,  948,  952,  956,  960
  964,  968,  972,  976,  980,  984,  988,  992,  996, 1000, 1004, 1008, 1012, 1016, 1020, 1024
 1028, 1032, 1036, 1040, 1044, 1048, 1052, 1056, 1060, 1064, 1068, 1072, 1076, 1080, 1084, 1088
 1092, 1096, 1100, 1104, 1108, 1112, 1116, 1120, 1124, 1128, 1132, 1136, 1140, 1144, 1148, 1152
 1156, 1160, 1164, 1168, 1172, 1176, 1180, 1184, 1188, 1192, 1196, 1200, 1204, 1208, 1212, 1216
 1220, 1224, 1228, 1232, 1236, 1240, 1244, 1248, 1252, 1256, 1260, 1264, 1268, 1272, 1276, 1280
** ... 6 like lines cut
*Nset, nset=FASEI_REV_TOP
   5,   6, 548, 549, 550
*Elset, elset=FASEI_REV_TOP, generate
 1633,  1636,     1
*Nset, nset=FASEI_REV_TT
   1,   2,   3,   4,   5,   6,   7,   8,   9, 138, 139, 140, 548, 549, 550
*Elset, elset=FASEI_REV_TT
    1,    2,    3,    4,  513,  514,  515,  516,  517,  518,  519,  520, 1633, 1634, 1635, 1636
** Section: STEEL_Section
*Solid Section, elset=FASEI_REV, material=STEEL
1.,
*End Instance
**  
*Instance, name=ROCK_INST, part=ROCK
*Node
      1,   12.1555748,       -3600.
      2,  0.155575007,       -3600.
      3,  0.155575007,       -4100.
      4,   12.1555748,       -4100.
      5,   12.1555748,       -2500.
      6,  0.155575007,       -2500.
      7,   9.13218498,       -3600.
      8,   6.87044096,       -3600.
      9,   5.17847109,       -3600.
     10,   3.91273904,       -3600.
     11,   2.96586776,       -3600.
     12,   2.25753021,       -3600.
     13,   1.72763586,       -3600.
     14,   1.33123136,       -3600.
     15,   1.03468823,       -3600.
     16,   0.81284976,       -3600.
     17,  0.646896362,       -3600.
     18,  0.522749603,       -3600.
     19,  0.429877669,       -3600.
     20,  0.360401839,       -3600.
** ... 13100 like lines cut
*Element, type=CAX4
   1,    1,    7,  911,  322
   2,    7,    8,  912,  911
   3,    8,    9,  913,  912
   4,    9,   10,  914,  913
   5,   10,   11,  915,  914
   6,   11,   12,  916,  915
   7,   12,   13,  917,  916
   8,   13,   14,  918,  917
   9,   14,   15,  919,  918
  10,   15,   16,  920,  919
  11,   16,   17,  921,  920
  12,   17,   18,  922,  921
  13,   18,   19,  923,  922
  14,   19,   20,  924,  923
  15,   20,   21,  925,  924
  16,   21,   22,  926,  925
  17,   22,   23,  927,  926
  18,   23,   24,  928,  927
  19,   24,   25,  929,  928
  20,   25,   26,  930,  929
** ... 12659 like lines cut
*Node
  13121,           0.,       -2500.,           0.
*Nset, nset=ROCK_INST-RefPt_, internal
13121, 
*Nset, nset=RP_TOP_2500
 13121,
*Nset, nset=ALLROCK, generate
     1,  13120,      1
*Elset, elset=ALLROCK, generate
     1,  12679,      1
*Nset, nset=FASEI_SLAVE, generate
     1,  13120,      1
*Elset, elset=FASEI_SLAVE, generate
     1,  12679,      1
*Nset, nset=L1-I_BASE
  1,  2,  7,  8,  9, 10, 11, 12, 13, 14, 15, 16, 17, 18, 19, 20
 21, 22, 23, 24, 25, 26, 27, 28, 29, 30, 31, 32, 33, 34, 35, 36
*Elset, elset=L1-I_BASE
    1,    2,    3,    4,    5,    6,    7,    8,    9,   10,   11,   12,   13,   14,   15,   16
   17,   18,   19,   20,   21,   22,   23,   24,   25,   26,   27,   28,   29,   30,   31, 4000
 4001, 4002, 4003, 4004, 4005, 4006, 4007, 4008, 4009, 4010, 4011, 4012, 4013, 4014, 4015, 4016
 4017, 4018, 4019, 4020, 4021, 4022, 4023, 4024, 4025, 4026, 4027, 4028, 4029, 4030
*Nset, nset=L2-I_BASE
   3,   4, 165, 166, 167, 168, 169, 170, 171, 172, 173, 174, 175, 176, 177, 178
 179, 180, 181, 182, 183, 184, 185, 186, 187, 188, 189, 190, 191, 192, 193, 194
*Elset, elset=L2-I_BASE, generate
 3969,  3999,     1
*Nset, nset=L1-I_ID
   2,   6, 632, 633, 634, 635, 636, 637, 638, 639, 640, 641, 642, 643, 644, 645
 646, 647, 648, 649, 650, 651, 652, 653, 654, 655, 656, 657, 658, 659, 660, 661
 662, 663, 664, 665, 666, 667, 668, 669, 670, 671, 672, 673, 674, 675, 676, 677
 678, 679, 680, 681, 682, 683, 684, 685, 686, 687, 688, 689, 690, 691, 692, 693
 694, 695, 696, 697, 698, 699, 700, 701, 702, 703, 704, 705, 706, 707, 708, 709
 710, 711, 712, 713, 714, 715, 716, 717, 718, 719, 720, 721, 722, 723, 724, 725
 726, 727, 728, 729, 730, 731, 732, 733, 734, 735, 736, 737, 738, 739, 740, 741
 742, 743, 744, 745, 746, 747, 748, 749, 750, 751, 752, 753, 754, 755, 756, 757
 758, 759, 760, 761, 762, 763, 764, 765, 766, 767, 768, 769, 770, 771, 772, 773
 774, 775, 776, 777, 778, 779, 780, 781, 782, 783, 784, 785, 786, 787, 788, 789
 790, 791, 792, 793, 794, 795, 796, 797, 798, 799, 800, 801, 802, 803, 804, 805
 806, 807, 808, 809, 810, 811, 812, 813, 814, 815, 816, 817, 818, 819, 820, 821
 822, 823, 824, 825, 826, 827, 828, 829, 830, 831, 832, 833, 834, 835, 836, 837
 838, 839, 840, 841, 842, 843, 844, 845, 846, 847, 848, 849, 850, 851, 852, 853
 854, 855, 856, 857, 858, 859, 860, 861, 862, 863, 864, 865, 866, 867, 868, 869
 870, 871, 872, 873, 874, 875, 876, 877, 878, 879, 880, 881, 882, 883, 884, 885
 886, 887, 888, 889, 890, 891, 892, 893, 894, 895, 896, 897, 898, 899, 900, 901
 902, 903, 904, 905, 906, 907, 908, 909, 910
*Elset, elset=L1-I_ID, generate
  4000,  12649,     31
*Nset, nset=L2-I_ID
   2,   3,  37,  38,  39,  40,  41,  42,  43,  44,  45,  46,  47,  48,  49,  50
  51,  52,  53,  54,  55,  56,  57,  58,  59,  60,  61,  62,  63,  64,  65,  66
  67,  68,  69,  70,  71,  72,  73,  74,  75,  76,  77,  78,  79,  80,  81,  82
  83,  84,  85,  86,  87,  88,  89,  90,  91,  92,  93,  94,  95,  96,  97,  98
  99, 100, 101, 102, 103, 104, 105, 106, 107, 108, 109, 110, 111, 112, 113, 114
 115, 116, 117, 118, 119, 120, 121, 122, 123, 124, 125, 126, 127, 128, 129, 130
 131, 132, 133, 134, 135, 136, 137, 138, 139, 140, 141, 142, 143, 144, 145, 146
 147, 148, 149, 150, 151, 152, 153, 154, 155, 156, 157, 158, 159, 160, 161, 162
 163, 164
*Elset, elset=L2-I_ID, generate
   31,  3999,    31
*Nset, nset=L1-I_OD
   1,   5, 323, 324, 325, 326, 327, 328, 329, 330, 331, 332, 333, 334, 335, 336
 337, 338, 339, 340, 341, 342, 343, 344, 345, 346, 347, 348, 349, 350, 351, 352
 353, 354, 355, 356, 357, 358, 359, 360, 361, 362, 363, 364, 365, 366, 367, 368
 369, 370, 371, 372, 373, 374, 375, 376, 377, 378, 379, 380, 381, 382, 383, 384
 385, 386, 387, 388, 389, 390, 391, 392, 393, 394, 395, 396, 397, 398, 399, 400
 401, 402, 403, 404, 405, 406, 407, 408, 409, 410, 411, 412, 413, 414, 415, 416
 417, 418, 419, 420, 421, 422, 423, 424, 425, 426, 427, 428, 429, 430, 431, 432
 433, 434, 435, 436, 437, 438, 439, 440, 441, 442, 443, 444, 445, 446, 447, 448
 449, 450, 451, 452, 453, 454, 455, 456, 457, 458, 459, 460, 461, 462, 463, 464
 465, 466, 467, 468, 469, 470, 471, 472, 473, 474, 475, 476, 477, 478, 479, 480
 481, 482, 483, 484, 485, 486, 487, 488, 489, 490, 491, 492, 493, 494, 495, 496
 497, 498, 499, 500, 501, 502, 503, 504, 505, 506, 507, 508, 509, 510, 511, 512
 513, 514, 515, 516, 517, 518, 519, 520, 521, 522, 523, 524, 525, 526, 527, 528
 529, 530, 531, 532, 533, 534, 535, 536, 537, 538, 539, 540, 541, 542, 543, 544
 545, 546, 547, 548, 549, 550, 551, 552, 553, 554, 555, 556, 557, 558, 559, 560
 561, 562, 563, 564, 565, 566, 567, 568, 569, 570, 571, 572, 573, 574, 575, 576
 577, 578, 579, 580, 581, 582, 583, 584, 585, 586, 587, 588, 589, 590, 591, 592
 593, 594, 595, 596, 597, 598, 599, 600, 601
*Elset, elset=L1-I_OD, generate
  4030,  12679,     31
*Nset, nset=L2-I_OD
   1,   4, 195, 196, 197, 198, 199, 200, 201, 202, 203, 204, 205, 206, 207, 208
 209, 210, 211, 212, 213, 214, 215, 216, 217, 218, 219, 220, 221, 222, 223, 224
 225, 226, 227, 228, 229, 230, 231, 232, 233, 234, 235, 236, 237, 238, 239, 240
 241, 242, 243, 244, 245, 246, 247, 248, 249, 250, 251, 252, 253, 254, 255, 256
 257, 258, 259, 260, 261, 262, 263, 264, 265, 266, 267, 268, 269, 270, 271, 272
 273, 274, 275, 276, 277, 278, 279, 280, 281, 282, 283, 284, 285, 286, 287, 288
 289, 290, 291, 292, 293, 294, 295, 296, 297, 298, 299, 300, 301, 302, 303, 304
 305, 306, 307, 308, 309, 310, 311, 312, 313, 314, 315, 316, 317, 318, 319, 320
 321, 322
*Elset, elset=L2-I_OD, generate
    1,  3969,    31
*Nset, nset=L1-I_TOP
   5,   6, 602, 603, 604, 605, 606, 607, 608, 609, 610, 611, 612, 613, 614, 615
 616, 617, 618, 619, 620, 621, 622, 623, 624, 625, 626, 627, 628, 629, 630, 631
*Elset, elset=L1-I_TOP, generate
 12649,  12679,      1
*Nset, nset=L2-I_TOP
  1,  2,  7,  8,  9, 10, 11, 12, 13, 14, 15, 16, 17, 18, 19, 20
 21, 22, 23, 24, 25, 26, 27, 28, 29, 30, 31, 32, 33, 34, 35, 36
*Elset, elset=L2-I_TOP
    1,    2,    3,    4,    5,    6,    7,    8,    9,   10,   11,   12,   13,   14,   15,   16
   17,   18,   19,   20,   21,   22,   23,   24,   25,   26,   27,   28,   29,   30,   31, 4000
 4001, 4002, 4003, 4004, 4005, 4006, 4007, 4008, 4009, 4010, 4011, 4012, 4013, 4014, 4015, 4016
 4017, 4018, 4019, 4020, 4021, 4022, 4023, 4024, 4025, 4026, 4027, 4028, 4029, 4030
*Nset, nset=L1-I
     1,     2,     5,     6,     7,     8,     9,    10,    11,    12,    13,    14,    15,    16,    17,    18
    19,    20,    21,    22,    23,    24,    25,    26,    27,    28,    29,    30,    31,    32,    33,    34
    35,    36,   323,   324,   325,   326,   327,   328,   329,   330,   331,   332,   333,   334,   335,   336
   337,   338,   339,   340,   341,   342,   343,   344,   345,   346,   347,   348,   349,   350,   351,   352
   353,   354,   355,   356,   357,   358,   359,   360,   361,   362,   363,   364,   365,   366,   367,   368
   369,   370,   371,   372,   373,   374,   375,   376,   377,   378,   379,   380,   381,   382,   383,   384
   385,   386,   387,   388,   389,   390,   391,   392,   393,   394,   395,   396,   397,   398,   399,   400
   401,   402,   403,   404,   405,   406,   407,   408,   409,   410,   411,   412,   413,   414,   415,   416
   417,   418,   419,   420,   421,   422,   423,   424,   425,   426,   427,   428,   429,   430,   431,   432
   433,   434,   435,   436,   437,   438,   439,   440,   441,   442,   443,   444,   445,   446,   447,   448
   449,   450,   451,   452,   453,   454,   455,   456,   457,   458,   459,   460,   461,   462,   463,   464
   465,   466,   467,   468,   469,   470,   471,   472,   473,   474,   475,   476,   477,   478,   479,   480
   481,   482,   483,   484,   485,   486,   487,   488,   489,   490,   491,   492,   493,   494,   495,   496
   497,   498,   499,   500,   501,   502,   503,   504,   505,   506,   507,   508,   509,   510,   511,   512
   513,   514,   515,   516,   517,   518,   519,   520,   521,   522,   523,   524,   525,   526,   527,   528
   529,   530,   531,   532,   533,   534,   535,   536,   537,   538,   539,   540,   541,   542,   543,   544
   545,   546,   547,   548,   549,   550,   551,   552,   553,   554,   555,   556,   557,   558,   559,   560
   561,   562,   563,   564,   565,   566,   567,   568,   569,   570,   571,   572,   573,   574,   575,   576
   577,   578,   579,   580,   581,   582,   583,   584,   585,   586,   587,   588,   589,   590,   591,   592
   593,   594,   595,   596,   597,   598,   599,   600,   601,   602,   603,   604,   605,   606,   607,   608
** ... 542 like lines cut
*Elset, elset=L1-I, generate
  4000,  12679,      1
*Nset, nset=L2-I
    1,    2,    3,    4,    7,    8,    9,   10,   11,   12,   13,   14,   15,   16,   17,   18
   19,   20,   21,   22,   23,   24,   25,   26,   27,   28,   29,   30,   31,   32,   33,   34
   35,   36,   37,   38,   39,   40,   41,   42,   43,   44,   45,   46,   47,   48,   49,   50
   51,   52,   53,   54,   55,   56,   57,   58,   59,   60,   61,   62,   63,   64,   65,   66
   67,   68,   69,   70,   71,   72,   73,   74,   75,   76,   77,   78,   79,   80,   81,   82
   83,   84,   85,   86,   87,   88,   89,   90,   91,   92,   93,   94,   95,   96,   97,   98
   99,  100,  101,  102,  103,  104,  105,  106,  107,  108,  109,  110,  111,  112,  113,  114
  115,  116,  117,  118,  119,  120,  121,  122,  123,  124,  125,  126,  127,  128,  129,  130
  131,  132,  133,  134,  135,  136,  137,  138,  139,  140,  141,  142,  143,  144,  145,  146
  147,  148,  149,  150,  151,  152,  153,  154,  155,  156,  157,  158,  159,  160,  161,  162
  163,  164,  165,  166,  167,  168,  169,  170,  171,  172,  173,  174,  175,  176,  177,  178
  179,  180,  181,  182,  183,  184,  185,  186,  187,  188,  189,  190,  191,  192,  193,  194
  195,  196,  197,  198,  199,  200,  201,  202,  203,  204,  205,  206,  207,  208,  209,  210
  211,  212,  213,  214,  215,  216,  217,  218,  219,  220,  221,  222,  223,  224,  225,  226
  227,  228,  229,  230,  231,  232,  233,  234,  235,  236,  237,  238,  239,  240,  241,  242
  243,  244,  245,  246,  247,  248,  249,  250,  251,  252,  253,  254,  255,  256,  257,  258
  259,  260,  261,  262,  263,  264,  265,  266,  267,  268,  269,  270,  271,  272,  273,  274
  275,  276,  277,  278,  279,  280,  281,  282,  283,  284,  285,  286,  287,  288,  289,  290
  291,  292,  293,  294,  295,  296,  297,  298,  299,  300,  301,  302,  303,  304,  305,  306
  307,  308,  309,  310,  311,  312,  313,  314,  315,  316,  317,  318,  319,  320,  321,  322
** ... 240 like lines cut
*Elset, elset=L2-I, generate
    1,  3999,     1
** Section: LAYER_02_HALITE_Section
*Solid Section, elset=L2-I, material=LAYER_02_HALITE
1.,
** Section: LAYER_01_SANDSTONE_Section
*Solid Section, elset=L1-I, material=LAYER_01_SANDSTONE
1.,
*End Instance
**  
*Nset, nset=ALL, instance=FLUID_INST, generate
    1,  3690,     1
*Nset, nset=ALL, instance=PIPE_INST, generate
    1,  2050,     1
*Nset, nset=ALL, instance=ROCK_INST, generate
     1,  13120,      1
*Elset, elset=ALL, instance=FLUID_INST, generate
    1,  3272,     1
*Elset, elset=ALL, instance=PIPE_INST, generate
    1,  1636,     1
*Elset, elset=ALL, instance=ROCK_INST, generate
     1,  12679,      1
*Nset, nset=FASEI, instance=FLUID_INST, generate
    1,  3690,     1
*Nset, nset=FASEI, instance=PIPE_INST, generate
    1,  2050,     1
*Elset, elset=FASEI, instance=FLUID_INST, generate
    1,  3272,     1
*Elset, elset=FASEI, instance=PIPE_INST, generate
    1,  1636,     1
*Nset, nset=FASEI_COMPLETED_WELL, instance=PIPE_INST
   2,   3,   6,  10,  11,  12,  13,  14,  15,  16,  17,  18,  19,  20,  21,  22
  23,  24,  25,  26,  27,  28,  29,  30,  31,  32,  33,  34,  35,  36,  37,  38
  39,  40,  41,  42,  43,  44,  45,  46,  47,  48,  49,  50,  51,  52,  53,  54
  55,  56,  57,  58,  59,  60,  61,  62,  63,  64,  65,  66,  67,  68,  69,  70
  71,  72,  73,  74,  75,  76,  77,  78,  79,  80,  81,  82,  83,  84,  85,  86
  87,  88,  89,  90,  91,  92,  93,  94,  95,  96,  97,  98,  99, 100, 101, 102
 103, 104, 105, 106, 107, 108, 109, 110, 111, 112, 113, 114, 115, 116, 117, 118
 119, 120, 121, 122, 123, 124, 125, 126, 127, 128, 129, 130, 131, 132, 133, 134
 135, 136, 137, 551, 552, 553, 554, 555, 556, 557, 558, 559, 560, 561, 562, 563
 564, 565, 566, 567, 568, 569, 570, 571, 572, 573, 574, 575, 576, 577, 578, 579
 580, 581, 582, 583, 584, 585, 586, 587, 588, 589, 590, 591, 592, 593, 594, 595
 596, 597, 598, 599, 600, 601, 602, 603, 604, 605, 606, 607, 608, 609, 610, 611
 612, 613, 614, 615, 616, 617, 618, 619, 620, 621, 622, 623, 624, 625, 626, 627
 628, 629, 630, 631, 632, 633, 634, 635, 636, 637, 638, 639, 640, 641, 642, 643
 644, 645, 646, 647, 648, 649, 650, 651, 652, 653, 654, 655, 656, 657, 658, 659
 660, 661, 662, 663, 664, 665, 666, 667, 668, 669, 670, 671, 672, 673, 674, 675
 676, 677, 678, 679, 680, 681, 682, 683, 684, 685, 686, 687, 688, 689, 690, 691
 692, 693, 694, 695, 696, 697, 698, 699, 700, 701, 702, 703, 704, 705, 706, 707
 708, 709, 710, 711, 712, 713, 714, 715, 716, 717, 718, 719, 720, 721, 722, 723
 724, 725, 726, 727, 728, 729, 730, 731, 732, 733, 734, 735, 736, 737, 738, 739
** ... 6 like lines cut
*Elset, elset=FASEI_COMPLETED_WELL, instance=PIPE_INST
    4,    8,   12,   16,   20,   24,   28,   32,   36,   40,   44,   48,   52,   56,   60,   64
   68,   72,   76,   80,   84,   88,   92,   96,  100,  104,  108,  112,  116,  120,  124,  128
  132,  136,  140,  144,  148,  152,  156,  160,  164,  168,  172,  176,  180,  184,  188,  192
  196,  200,  204,  208,  212,  216,  220,  224,  228,  232,  236,  240,  244,  248,  252,  256
  260,  264,  268,  272,  276,  280,  284,  288,  292,  296,  300,  304,  308,  312,  316,  320
  324,  328,  332,  336,  340,  344,  348,  352,  356,  360,  364,  368,  372,  376,  380,  384
  388,  392,  396,  400,  404,  408,  412,  416,  420,  424,  428,  432,  436,  440,  444,  448
  452,  456,  460,  464,  468,  472,  476,  480,  484,  488,  492,  496,  500,  504,  508,  512
  516,  517,  521,  525,  529,  533,  537,  541,  545,  549,  553,  557,  561,  565,  569,  573
  577,  581,  585,  589,  593,  597,  601,  605,  609,  613,  617,  621,  625,  629,  633,  637
  641,  645,  649,  653,  657,  661,  665,  669,  673,  677,  681,  685,  689,  693,  697,  701
  705,  709,  713,  717,  721,  725,  729,  733,  737,  741,  745,  749,  753,  757,  761,  765
  769,  773,  777,  781,  785,  789,  793,  797,  801,  805,  809,  813,  817,  821,  825,  829
  833,  837,  841,  845,  849,  853,  857,  861,  865,  869,  873,  877,  881,  885,  889,  893
  897,  901,  905,  909,  913,  917,  921,  925,  929,  933,  937,  941,  945,  949,  953,  957
  961,  965,  969,  973,  977,  981,  985,  989,  993,  997, 1001, 1005, 1009, 1013, 1017, 1021
 1025, 1029, 1033, 1037, 1041, 1045, 1049, 1053, 1057, 1061, 1065, 1069, 1073, 1077, 1081, 1085
 1089, 1093, 1097, 1101, 1105, 1109, 1113, 1117, 1121, 1125, 1129, 1133, 1137, 1141, 1145, 1149
 1153, 1157, 1161, 1165, 1169, 1173, 1177, 1181, 1185, 1189, 1193, 1197, 1201, 1205, 1209, 1213
 1217, 1221, 1225, 1229, 1233, 1237, 1241, 1245, 1249, 1253, 1257, 1261, 1265, 1269, 1273, 1277
** ... 6 like lines cut
*Nset, nset=FASEI_OPEN_WELL, instance=ROCK_INST
   2,   3,   6,  37,  38,  39,  40,  41,  42,  43,  44,  45,  46,  47,  48,  49
  50,  51,  52,  53,  54,  55,  56,  57,  58,  59,  60,  61,  62,  63,  64,  65
  66,  67,  68,  69,  70,  71,  72,  73,  74,  75,  76,  77,  78,  79,  80,  81
  82,  83,  84,  85,  86,  87,  88,  89,  90,  91,  92,  93,  94,  95,  96,  97
  98,  99, 100, 101, 102, 103, 104, 105, 106, 107, 108, 109, 110, 111, 112, 113
 114, 115, 116, 117, 118, 119, 120, 121, 122, 123, 124, 125, 126, 127, 128, 129
 130, 131, 132, 133, 134, 135, 136, 137, 138, 139, 140, 141, 142, 143, 144, 145
 146, 147, 148, 149, 150, 151, 152, 153, 154, 155, 156, 157, 158, 159, 160, 161
 162, 163, 164, 632, 633, 634, 635, 636, 637, 638, 639, 640, 641, 642, 643, 644
 645, 646, 647, 648, 649, 650, 651, 652, 653, 654, 655, 656, 657, 658, 659, 660
 661, 662, 663, 664, 665, 666, 667, 668, 669, 670, 671, 672, 673, 674, 675, 676
 677, 678, 679, 680, 681, 682, 683, 684, 685, 686, 687, 688, 689, 690, 691, 692
 693, 694, 695, 696, 697, 698, 699, 700, 701, 702, 703, 704, 705, 706, 707, 708
 709, 710, 711, 712, 713, 714, 715, 716, 717, 718, 719, 720, 721, 722, 723, 724
 725, 726, 727, 728, 729, 730, 731, 732, 733, 734, 735, 736, 737, 738, 739, 740
 741, 742, 743, 744, 745, 746, 747, 748, 749, 750, 751, 752, 753, 754, 755, 756
 757, 758, 759, 760, 761, 762, 763, 764, 765, 766, 767, 768, 769, 770, 771, 772
 773, 774, 775, 776, 777, 778, 779, 780, 781, 782, 783, 784, 785, 786, 787, 788
 789, 790, 791, 792, 793, 794, 795, 796, 797, 798, 799, 800, 801, 802, 803, 804
 805, 806, 807, 808, 809, 810, 811, 812, 813, 814, 815, 816, 817, 818, 819, 820
** ... 6 like lines cut
*Elset, elset=FASEI_OPEN_WELL, instance=ROCK_INST
    31,    62,    93,   124,   155,   186,   217,   248,   279,   310,   341,   372,   403,   434,   465,   496
   527,   558,   589,   620,   651,   682,   713,   744,   775,   806,   837,   868,   899,   930,   961,   992
  1023,  1054,  1085,  1116,  1147,  1178,  1209,  1240,  1271,  1302,  1333,  1364,  1395,  1426,  1457,  1488
  1519,  1550,  1581,  1612,  1643,  1674,  1705,  1736,  1767,  1798,  1829,  1860,  1891,  1922,  1953,  1984
  2015,  2046,  2077,  2108,  2139,  2170,  2201,  2232,  2263,  2294,  2325,  2356,  2387,  2418,  2449,  2480
  2511,  2542,  2573,  2604,  2635,  2666,  2697,  2728,  2759,  2790,  2821,  2852,  2883,  2914,  2945,  2976
  3007,  3038,  3069,  3100,  3131,  3162,  3193,  3224,  3255,  3286,  3317,  3348,  3379,  3410,  3441,  3472
  3503,  3534,  3565,  3596,  3627,  3658,  3689,  3720,  3751,  3782,  3813,  3844,  3875,  3906,  3937,  3968
  3999,  4000,  4031,  4062,  4093,  4124,  4155,  4186,  4217,  4248,  4279,  4310,  4341,  4372,  4403,  4434
  4465,  4496,  4527,  4558,  4589,  4620,  4651,  4682,  4713,  4744,  4775,  4806,  4837,  4868,  4899,  4930
  4961,  4992,  5023,  5054,  5085,  5116,  5147,  5178,  5209,  5240,  5271,  5302,  5333,  5364,  5395,  5426
  5457,  5488,  5519,  5550,  5581,  5612,  5643,  5674,  5705,  5736,  5767,  5798,  5829,  5860,  5891,  5922
  5953,  5984,  6015,  6046,  6077,  6108,  6139,  6170,  6201,  6232,  6263,  6294,  6325,  6356,  6387,  6418
  6449,  6480,  6511,  6542,  6573,  6604,  6635,  6666,  6697,  6728,  6759,  6790,  6821,  6852,  6883,  6914
  6945,  6976,  7007,  7038,  7069,  7100,  7131,  7162,  7193,  7224,  7255,  7286,  7317,  7348,  7379,  7410
  7441,  7472,  7503,  7534,  7565,  7596,  7627,  7658,  7689,  7720,  7751,  7782,  7813,  7844,  7875,  7906
  7937,  7968,  7999,  8030,  8061,  8092,  8123,  8154,  8185,  8216,  8247,  8278,  8309,  8340,  8371,  8402
  8433,  8464,  8495,  8526,  8557,  8588,  8619,  8650,  8681,  8712,  8743,  8774,  8805,  8836,  8867,  8898
  8929,  8960,  8991,  9022,  9053,  9084,  9115,  9146,  9177,  9208,  9239,  9270,  9301,  9332,  9363,  9394
  9425,  9456,  9487,  9518,  9549,  9580,  9611,  9642,  9673,  9704,  9735,  9766,  9797,  9828,  9859,  9890
** ... 6 like lines cut
*Nset, nset=FASEI_WELL, instance=ROCK_INST
   2,   3,   6,  37,  38,  39,  40,  41,  42,  43,  44,  45,  46,  47,  48,  49
  50,  51,  52,  53,  54,  55,  56,  57,  58,  59,  60,  61,  62,  63,  64,  65
  66,  67,  68,  69,  70,  71,  72,  73,  74,  75,  76,  77,  78,  79,  80,  81
  82,  83,  84,  85,  86,  87,  88,  89,  90,  91,  92,  93,  94,  95,  96,  97
  98,  99, 100, 101, 102, 103, 104, 105, 106, 107, 108, 109, 110, 111, 112, 113
 114, 115, 116, 117, 118, 119, 120, 121, 122, 123, 124, 125, 126, 127, 128, 129
 130, 131, 132, 133, 134, 135, 136, 137, 138, 139, 140, 141, 142, 143, 144, 145
 146, 147, 148, 149, 150, 151, 152, 153, 154, 155, 156, 157, 158, 159, 160, 161
 162, 163, 164, 632, 633, 634, 635, 636, 637, 638, 639, 640, 641, 642, 643, 644
 645, 646, 647, 648, 649, 650, 651, 652, 653, 654, 655, 656, 657, 658, 659, 660
 661, 662, 663, 664, 665, 666, 667, 668, 669, 670, 671, 672, 673, 674, 675, 676
 677, 678, 679, 680, 681, 682, 683, 684, 685, 686, 687, 688, 689, 690, 691, 692
 693, 694, 695, 696, 697, 698, 699, 700, 701, 702, 703, 704, 705, 706, 707, 708
 709, 710, 711, 712, 713, 714, 715, 716, 717, 718, 719, 720, 721, 722, 723, 724
 725, 726, 727, 728, 729, 730, 731, 732, 733, 734, 735, 736, 737, 738, 739, 740
 741, 742, 743, 744, 745, 746, 747, 748, 749, 750, 751, 752, 753, 754, 755, 756
 757, 758, 759, 760, 761, 762, 763, 764, 765, 766, 767, 768, 769, 770, 771, 772
 773, 774, 775, 776, 777, 778, 779, 780, 781, 782, 783, 784, 785, 786, 787, 788
 789, 790, 791, 792, 793, 794, 795, 796, 797, 798, 799, 800, 801, 802, 803, 804
 805, 806, 807, 808, 809, 810, 811, 812, 813, 814, 815, 816, 817, 818, 819, 820
** ... 6 like lines cut
*Elset, elset=FASEI_WELL, instance=ROCK_INST
    31,    62,    93,   124,   155,   186,   217,   248,   279,   310,   341,   372,   403,   434,   465,   496
   527,   558,   589,   620,   651,   682,   713,   744,   775,   806,   837,   868,   899,   930,   961,   992
  1023,  1054,  1085,  1116,  1147,  1178,  1209,  1240,  1271,  1302,  1333,  1364,  1395,  1426,  1457,  1488
  1519,  1550,  1581,  1612,  1643,  1674,  1705,  1736,  1767,  1798,  1829,  1860,  1891,  1922,  1953,  1984
  2015,  2046,  2077,  2108,  2139,  2170,  2201,  2232,  2263,  2294,  2325,  2356,  2387,  2418,  2449,  2480
  2511,  2542,  2573,  2604,  2635,  2666,  2697,  2728,  2759,  2790,  2821,  2852,  2883,  2914,  2945,  2976
  3007,  3038,  3069,  3100,  3131,  3162,  3193,  3224,  3255,  3286,  3317,  3348,  3379,  3410,  3441,  3472
  3503,  3534,  3565,  3596,  3627,  3658,  3689,  3720,  3751,  3782,  3813,  3844,  3875,  3906,  3937,  3968
  3999,  4000,  4031,  4062,  4093,  4124,  4155,  4186,  4217,  4248,  4279,  4310,  4341,  4372,  4403,  4434
  4465,  4496,  4527,  4558,  4589,  4620,  4651,  4682,  4713,  4744,  4775,  4806,  4837,  4868,  4899,  4930
  4961,  4992,  5023,  5054,  5085,  5116,  5147,  5178,  5209,  5240,  5271,  5302,  5333,  5364,  5395,  5426
  5457,  5488,  5519,  5550,  5581,  5612,  5643,  5674,  5705,  5736,  5767,  5798,  5829,  5860,  5891,  5922
  5953,  5984,  6015,  6046,  6077,  6108,  6139,  6170,  6201,  6232,  6263,  6294,  6325,  6356,  6387,  6418
  6449,  6480,  6511,  6542,  6573,  6604,  6635,  6666,  6697,  6728,  6759,  6790,  6821,  6852,  6883,  6914
  6945,  6976,  7007,  7038,  7069,  7100,  7131,  7162,  7193,  7224,  7255,  7286,  7317,  7348,  7379,  7410
  7441,  7472,  7503,  7534,  7565,  7596,  7627,  7658,  7689,  7720,  7751,  7782,  7813,  7844,  7875,  7906
  7937,  7968,  7999,  8030,  8061,  8092,  8123,  8154,  8185,  8216,  8247,  8278,  8309,  8340,  8371,  8402
  8433,  8464,  8495,  8526,  8557,  8588,  8619,  8650,  8681,  8712,  8743,  8774,  8805,  8836,  8867,  8898
  8929,  8960,  8991,  9022,  9053,  9084,  9115,  9146,  9177,  9208,  9239,  9270,  9301,  9332,  9363,  9394
  9425,  9456,  9487,  9518,  9549,  9580,  9611,  9642,  9673,  9704,  9735,  9766,  9797,  9828,  9859,  9890
** ... 6 like lines cut
*Nset, nset=MESH_TT_ANNULARS, instance=FLUID_INST
   1,   2,   3,   4,   5,   6,   7,   8,   9,  10,  11,  12,  13, 142, 143, 144
 145, 146, 147, 148, 556, 557, 558, 559, 560, 561, 562
*Elset, elset=MESH_TT_ANNULARS, instance=FLUID_INST
    1,    2,    3,    4,    5,    6,    7,    8, 1025, 1026, 1027, 1028, 1029, 1030, 1031, 1032
 1033, 1034, 1035, 1036, 1037, 1038, 1039, 1040, 3265, 3266, 3267, 3268, 3269, 3270, 3271, 3272
*Nset, nset=MESH_TT_PIPES, instance=PIPE_INST
   1,   2,   3,   4,   5,   6,   7,   8,   9, 138, 139, 140, 548, 549, 550
*Elset, elset=MESH_TT_PIPES, instance=PIPE_INST
    1,    2,    3,    4,  513,  514,  515,  516,  517,  518,  519,  520, 1633, 1634, 1635, 1636
*Nset, nset=MESH_TT_ROCK, instance=ROCK_INST
   1,   2,   3,   4,   5,   6,   7,   8,   9,  10,  11,  12,  13,  14,  15,  16
  17,  18,  19,  20,  21,  22,  23,  24,  25,  26,  27,  28,  29,  30,  31,  32
  33,  34,  35,  36, 165, 166, 167, 168, 169, 170, 171, 172, 173, 174, 175, 176
 177, 178, 179, 180, 181, 182, 183, 184, 185, 186, 187, 188, 189, 190, 191, 192
 193, 194, 602, 603, 604, 605, 606, 607, 608, 609, 610, 611, 612, 613, 614, 615
 616, 617, 618, 619, 620, 621, 622, 623, 624, 625, 626, 627, 628, 629, 630, 631
*Elset, elset=MESH_TT_ROCK, instance=ROCK_INST
     1,     2,     3,     4,     5,     6,     7,     8,     9,    10,    11,    12,    13,    14,    15,    16
    17,    18,    19,    20,    21,    22,    23,    24,    25,    26,    27,    28,    29,    30,    31,  3969
  3970,  3971,  3972,  3973,  3974,  3975,  3976,  3977,  3978,  3979,  3980,  3981,  3982,  3983,  3984,  3985
  3986,  3987,  3988,  3989,  3990,  3991,  3992,  3993,  3994,  3995,  3996,  3997,  3998,  3999,  4000,  4001
  4002,  4003,  4004,  4005,  4006,  4007,  4008,  4009,  4010,  4011,  4012,  4013,  4014,  4015,  4016,  4017
  4018,  4019,  4020,  4021,  4022,  4023,  4024,  4025,  4026,  4027,  4028,  4029,  4030, 12649, 12650, 12651
 12652, 12653, 12654, 12655, 12656, 12657, 12658, 12659, 12660, 12661, 12662, 12663, 12664, 12665, 12666, 12667
 12668, 12669, 12670, 12671, 12672, 12673, 12674, 12675, 12676, 12677, 12678, 12679
*Nset, nset=MESH_VERTICAL, instance=FLUID_INST
   1,   2,   3,   4,   5,   6,  14,  15,  16,  17,  18,  19,  20,  21,  22,  23
  24,  25,  26,  27,  28,  29,  30,  31,  32,  33,  34,  35,  36,  37,  38,  39
  40,  41,  42,  43,  44,  45,  46,  47,  48,  49,  50,  51,  52,  53,  54,  55
  56,  57,  58,  59,  60,  61,  62,  63,  64,  65,  66,  67,  68,  69,  70,  71
  72,  73,  74,  75,  76,  77,  78,  79,  80,  81,  82,  83,  84,  85,  86,  87
  88,  89,  90,  91,  92,  93,  94,  95,  96,  97,  98,  99, 100, 101, 102, 103
 104, 105, 106, 107, 108, 109, 110, 111, 112, 113, 114, 115, 116, 117, 118, 119
 120, 121, 122, 123, 124, 125, 126, 127, 128, 129, 130, 131, 132, 133, 134, 135
 136, 137, 138, 139, 140, 141, 149, 150, 151, 152, 153, 154, 155, 156, 157, 158
 159, 160, 161, 162, 163, 164, 165, 166, 167, 168, 169, 170, 171, 172, 173, 174
 175, 176, 177, 178, 179, 180, 181, 182, 183, 184, 185, 186, 187, 188, 189, 190
 191, 192, 193, 194, 195, 196, 197, 198, 199, 200, 201, 202, 203, 204, 205, 206
 207, 208, 209, 210, 211, 212, 213, 214, 215, 216, 217, 218, 219, 220, 221, 222
 223, 224, 225, 226, 227, 228, 229, 230, 231, 232, 233, 234, 235, 236, 237, 238
 239, 240, 241, 242, 243, 244, 245, 246, 247, 248, 249, 250, 251, 252, 253, 254
 255, 256, 257, 258, 259, 260, 261, 262, 263, 264, 265, 266, 267, 268, 269, 270
 271, 272, 273, 274, 275, 276, 277, 278, 279, 280, 281, 282, 283, 284, 285, 286
 287, 288, 289, 290, 291, 292, 293, 294, 295, 296, 297, 298, 299, 300, 301, 302
 303, 304, 305, 306, 307, 308, 309, 310, 311, 312, 313, 314, 315, 316, 317, 318
 319, 320, 321, 322, 323, 324, 325, 326, 327, 328, 329, 330, 331, 332, 333, 334
** ... 32 like lines cut
*Nset, nset=MESH_VERTICAL, instance=PIPE_INST
   1,   2,   3,   4,   5,   6,  10,  11,  12,  13,  14,  15,  16,  17,  18,  19
  20,  21,  22,  23,  24,  25,  26,  27,  28,  29,  30,  31,  32,  33,  34,  35
  36,  37,  38,  39,  40,  41,  42,  43,  44,  45,  46,  47,  48,  49,  50,  51
  52,  53,  54,  55,  56,  57,  58,  59,  60,  61,  62,  63,  64,  65,  66,  67
  68,  69,  70,  71,  72,  73,  74,  75,  76,  77,  78,  79,  80,  81,  82,  83
  84,  85,  86,  87,  88,  89,  90,  91,  92,  93,  94,  95,  96,  97,  98,  99
 100, 101, 102, 103, 104, 105, 106, 107, 108, 109, 110, 111, 112, 113, 114, 115
 116, 117, 118, 119, 120, 121, 122, 123, 124, 125, 126, 127, 128, 129, 130, 131
 132, 133, 134, 135, 136, 137, 141, 142, 143, 144, 145, 146, 147, 148, 149, 150
 151, 152, 153, 154, 155, 156, 157, 158, 159, 160, 161, 162, 163, 164, 165, 166
 167, 168, 169, 170, 171, 172, 173, 174, 175, 176, 177, 178, 179, 180, 181, 182
 183, 184, 185, 186, 187, 188, 189, 190, 191, 192, 193, 194, 195, 196, 197, 198
 199, 200, 201, 202, 203, 204, 205, 206, 207, 208, 209, 210, 211, 212, 213, 214
 215, 216, 217, 218, 219, 220, 221, 222, 223, 224, 225, 226, 227, 228, 229, 230
 231, 232, 233, 234, 235, 236, 237, 238, 239, 240, 241, 242, 243, 244, 245, 246
 247, 248, 249, 250, 251, 252, 253, 254, 255, 256, 257, 258, 259, 260, 261, 262
 263, 264, 265, 266, 267, 268, 269, 270, 271, 272, 273, 274, 275, 276, 277, 278
 279, 280, 281, 282, 283, 284, 285, 286, 287, 288, 289, 290, 291, 292, 293, 294
 295, 296, 297, 298, 299, 300, 301, 302, 303, 304, 305, 306, 307, 308, 309, 310
 311, 312, 313, 314, 315, 316, 317, 318, 319, 320, 321, 322, 323, 324, 325, 326
** ... 32 like lines cut
*Nset, nset=MESH_VERTICAL, instance=ROCK_INST
   1,   2,   3,   4,   5,   6,  37,  38,  39,  40,  41,  42,  43,  44,  45,  46
  47,  48,  49,  50,  51,  52,  53,  54,  55,  56,  57,  58,  59,  60,  61,  62
  63,  64,  65,  66,  67,  68,  69,  70,  71,  72,  73,  74,  75,  76,  77,  78
  79,  80,  81,  82,  83,  84,  85,  86,  87,  88,  89,  90,  91,  92,  93,  94
  95,  96,  97,  98,  99, 100, 101, 102, 103, 104, 105, 106, 107, 108, 109, 110
 111, 112, 113, 114, 115, 116, 117, 118, 119, 120, 121, 122, 123, 124, 125, 126
 127, 128, 129, 130, 131, 132, 133, 134, 135, 136, 137, 138, 139, 140, 141, 142
 143, 144, 145, 146, 147, 148, 149, 150, 151, 152, 153, 154, 155, 156, 157, 158
 159, 160, 161, 162, 163, 164, 195, 196, 197, 198, 199, 200, 201, 202, 203, 204
 205, 206, 207, 208, 209, 210, 211, 212, 213, 214, 215, 216, 217, 218, 219, 220
 221, 222, 223, 224, 225, 226, 227, 228, 229, 230, 231, 232, 233, 234, 235, 236
 237, 238, 239, 240, 241, 242, 243, 244, 245, 246, 247, 248, 249, 250, 251, 252
 253, 254, 255, 256, 257, 258, 259, 260, 261, 262, 263, 264, 265, 266, 267, 268
 269, 270, 271, 272, 273, 274, 275, 276, 277, 278, 279, 280, 281, 282, 283, 284
 285, 286, 287, 288, 289, 290, 291, 292, 293, 294, 295, 296, 297, 298, 299, 300
 301, 302, 303, 304, 305, 306, 307, 308, 309, 310, 311, 312, 313, 314, 315, 316
 317, 318, 319, 320, 321, 322, 323, 324, 325, 326, 327, 328, 329, 330, 331, 332
 333, 334, 335, 336, 337, 338, 339, 340, 341, 342, 343, 344, 345, 346, 347, 348
 349, 350, 351, 352, 353, 354, 355, 356, 357, 358, 359, 360, 361, 362, 363, 364
 365, 366, 367, 368, 369, 370, 371, 372, 373, 374, 375, 376, 377, 378, 379, 380
** ... 32 like lines cut
*Elset, elset=MESH_VERTICAL, instance=FLUID_INST
    1,    8,    9,   16,   17,   24,   25,   32,   33,   40,   41,   48,   49,   56,   57,   64
   65,   72,   73,   80,   81,   88,   89,   96,   97,  104,  105,  112,  113,  120,  121,  128
  129,  136,  137,  144,  145,  152,  153,  160,  161,  168,  169,  176,  177,  184,  185,  192
  193,  200,  201,  208,  209,  216,  217,  224,  225,  232,  233,  240,  241,  248,  249,  256
  257,  264,  265,  272,  273,  280,  281,  288,  289,  296,  297,  304,  305,  312,  313,  320
  321,  328,  329,  336,  337,  344,  345,  352,  353,  360,  361,  368,  369,  376,  377,  384
  385,  392,  393,  400,  401,  408,  409,  416,  417,  424,  425,  432,  433,  440,  441,  448
  449,  456,  457,  464,  465,  472,  473,  480,  481,  488,  489,  496,  497,  504,  505,  512
  513,  520,  521,  528,  529,  536,  537,  544,  545,  552,  553,  560,  561,  568,  569,  576
  577,  584,  585,  592,  593,  600,  601,  608,  609,  616,  617,  624,  625,  632,  633,  640
  641,  648,  649,  656,  657,  664,  665,  672,  673,  680,  681,  688,  689,  696,  697,  704
  705,  712,  713,  720,  721,  728,  729,  736,  737,  744,  745,  752,  753,  760,  761,  768
  769,  776,  777,  784,  785,  792,  793,  800,  801,  808,  809,  816,  817,  824,  825,  832
  833,  840,  841,  848,  849,  856,  857,  864,  865,  872,  873,  880,  881,  888,  889,  896
  897,  904,  905,  912,  913,  920,  921,  928,  929,  936,  937,  944,  945,  952,  953,  960
  961,  968,  969,  976,  977,  984,  985,  992,  993, 1000, 1001, 1008, 1009, 1016, 1017, 1024
 1025, 1032, 1033, 1040, 1041, 1048, 1049, 1056, 1057, 1064, 1065, 1072, 1073, 1080, 1081, 1088
 1089, 1096, 1097, 1104, 1105, 1112, 1113, 1120, 1121, 1128, 1129, 1136, 1137, 1144, 1145, 1152
 1153, 1160, 1161, 1168, 1169, 1176, 1177, 1184, 1185, 1192, 1193, 1200, 1201, 1208, 1209, 1216
 1217, 1224, 1225, 1232, 1233, 1240, 1241, 1248, 1249, 1256, 1257, 1264, 1265, 1272, 1273, 1280
** ... 32 like lines cut
*Elset, elset=MESH_VERTICAL, instance=PIPE_INST
    1,    4,    5,    8,    9,   12,   13,   16,   17,   20,   21,   24,   25,   28,   29,   32
   33,   36,   37,   40,   41,   44,   45,   48,   49,   52,   53,   56,   57,   60,   61,   64
   65,   68,   69,   72,   73,   76,   77,   80,   81,   84,   85,   88,   89,   92,   93,   96
   97,  100,  101,  104,  105,  108,  109,  112,  113,  116,  117,  120,  121,  124,  125,  128
  129,  132,  133,  136,  137,  140,  141,  144,  145,  148,  149,  152,  153,  156,  157,  160
  161,  164,  165,  168,  169,  172,  173,  176,  177,  180,  181,  184,  185,  188,  189,  192
  193,  196,  197,  200,  201,  204,  205,  208,  209,  212,  213,  216,  217,  220,  221,  224
  225,  228,  229,  232,  233,  236,  237,  240,  241,  244,  245,  248,  249,  252,  253,  256
  257,  260,  261,  264,  265,  268,  269,  272,  273,  276,  277,  280,  281,  284,  285,  288
  289,  292,  293,  296,  297,  300,  301,  304,  305,  308,  309,  312,  313,  316,  317,  320
  321,  324,  325,  328,  329,  332,  333,  336,  337,  340,  341,  344,  345,  348,  349,  352
  353,  356,  357,  360,  361,  364,  365,  368,  369,  372,  373,  376,  377,  380,  381,  384
  385,  388,  389,  392,  393,  396,  397,  400,  401,  404,  405,  408,  409,  412,  413,  416
  417,  420,  421,  424,  425,  428,  429,  432,  433,  436,  437,  440,  441,  444,  445,  448
  449,  452,  453,  456,  457,  460,  461,  464,  465,  468,  469,  472,  473,  476,  477,  480
  481,  484,  485,  488,  489,  492,  493,  496,  497,  500,  501,  504,  505,  508,  509,  512
  513,  516,  517,  520,  521,  524,  525,  528,  529,  532,  533,  536,  537,  540,  541,  544
  545,  548,  549,  552,  553,  556,  557,  560,  561,  564,  565,  568,  569,  572,  573,  576
  577,  580,  581,  584,  585,  588,  589,  592,  593,  596,  597,  600,  601,  604,  605,  608
  609,  612,  613,  616,  617,  620,  621,  624,  625,  628,  629,  632,  633,  636,  637,  640
** ... 32 like lines cut
*Elset, elset=MESH_VERTICAL, instance=ROCK_INST
     1,    31,    32,    62,    63,    93,    94,   124,   125,   155,   156,   186,   187,   217,   218,   248
   249,   279,   280,   310,   311,   341,   342,   372,   373,   403,   404,   434,   435,   465,   466,   496
   497,   527,   528,   558,   559,   589,   590,   620,   621,   651,   652,   682,   683,   713,   714,   744
   745,   775,   776,   806,   807,   837,   838,   868,   869,   899,   900,   930,   931,   961,   962,   992
   993,  1023,  1024,  1054,  1055,  1085,  1086,  1116,  1117,  1147,  1148,  1178,  1179,  1209,  1210,  1240
  1241,  1271,  1272,  1302,  1303,  1333,  1334,  1364,  1365,  1395,  1396,  1426,  1427,  1457,  1458,  1488
  1489,  1519,  1520,  1550,  1551,  1581,  1582,  1612,  1613,  1643,  1644,  1674,  1675,  1705,  1706,  1736
  1737,  1767,  1768,  1798,  1799,  1829,  1830,  1860,  1861,  1891,  1892,  1922,  1923,  1953,  1954,  1984
  1985,  2015,  2016,  2046,  2047,  2077,  2078,  2108,  2109,  2139,  2140,  2170,  2171,  2201,  2202,  2232
  2233,  2263,  2264,  2294,  2295,  2325,  2326,  2356,  2357,  2387,  2388,  2418,  2419,  2449,  2450,  2480
  2481,  2511,  2512,  2542,  2543,  2573,  2574,  2604,  2605,  2635,  2636,  2666,  2667,  2697,  2698,  2728
  2729,  2759,  2760,  2790,  2791,  2821,  2822,  2852,  2853,  2883,  2884,  2914,  2915,  2945,  2946,  2976
  2977,  3007,  3008,  3038,  3039,  3069,  3070,  3100,  3101,  3131,  3132,  3162,  3163,  3193,  3194,  3224
  3225,  3255,  3256,  3286,  3287,  3317,  3318,  3348,  3349,  3379,  3380,  3410,  3411,  3441,  3442,  3472
  3473,  3503,  3504,  3534,  3535,  3565,  3566,  3596,  3597,  3627,  3628,  3658,  3659,  3689,  3690,  3720
  3721,  3751,  3752,  3782,  3783,  3813,  3814,  3844,  3845,  3875,  3876,  3906,  3907,  3937,  3938,  3968
  3969,  3999,  4000,  4030,  4031,  4061,  4062,  4092,  4093,  4123,  4124,  4154,  4155,  4185,  4186,  4216
  4217,  4247,  4248,  4278,  4279,  4309,  4310,  4340,  4341,  4371,  4372,  4402,  4403,  4433,  4434,  4464
  4465,  4495,  4496,  4526,  4527,  4557,  4558,  4588,  4589,  4619,  4620,  4650,  4651,  4681,  4682,  4712
  4713,  4743,  4744,  4774,  4775,  4805,  4806,  4836,  4837,  4867,  4868,  4898,  4899,  4929,  4930,  4960
** ... 32 like lines cut
*Nset, nset=ROCK_BC, instance=ROCK_INST
   1,   4,   5, 195, 196, 197, 198, 199, 200, 201, 202, 203, 204, 205, 206, 207
 208, 209, 210, 211, 212, 213, 214, 215, 216, 217, 218, 219, 220, 221, 222, 223
 224, 225, 226, 227, 228, 229, 230, 231, 232, 233, 234, 235, 236, 237, 238, 239
 240, 241, 242, 243, 244, 245, 246, 247, 248, 249, 250, 251, 252, 253, 254, 255
 256, 257, 258, 259, 260, 261, 262, 263, 264, 265, 266, 267, 268, 269, 270, 271
 272, 273, 274, 275, 276, 277, 278, 279, 280, 281, 282, 283, 284, 285, 286, 287
 288, 289, 290, 291, 292, 293, 294, 295, 296, 297, 298, 299, 300, 301, 302, 303
 304, 305, 306, 307, 308, 309, 310, 311, 312, 313, 314, 315, 316, 317, 318, 319
 320, 321, 322, 323, 324, 325, 326, 327, 328, 329, 330, 331, 332, 333, 334, 335
 336, 337, 338, 339, 340, 341, 342, 343, 344, 345, 346, 347, 348, 349, 350, 351
 352, 353, 354, 355, 356, 357, 358, 359, 360, 361, 362, 363, 364, 365, 366, 367
 368, 369, 370, 371, 372, 373, 374, 375, 376, 377, 378, 379, 380, 381, 382, 383
 384, 385, 386, 387, 388, 389, 390, 391, 392, 393, 394, 395, 396, 397, 398, 399
 400, 401, 402, 403, 404, 405, 406, 407, 408, 409, 410, 411, 412, 413, 414, 415
 416, 417, 418, 419, 420, 421, 422, 423, 424, 425, 426, 427, 428, 429, 430, 431
 432, 433, 434, 435, 436, 437, 438, 439, 440, 441, 442, 443, 444, 445, 446, 447
 448, 449, 450, 451, 452, 453, 454, 455, 456, 457, 458, 459, 460, 461, 462, 463
 464, 465, 466, 467, 468, 469, 470, 471, 472, 473, 474, 475, 476, 477, 478, 479
 480, 481, 482, 483, 484, 485, 486, 487, 488, 489, 490, 491, 492, 493, 494, 495
 496, 497, 498, 499, 500, 501, 502, 503, 504, 505, 506, 507, 508, 509, 510, 511
** ... 6 like lines cut
*Elset, elset=ROCK_BC, instance=ROCK_INST
     1,    32,    63,    94,   125,   156,   187,   218,   249,   280,   311,   342,   373,   404,   435,   466
   497,   528,   559,   590,   621,   652,   683,   714,   745,   776,   807,   838,   869,   900,   931,   962
   993,  1024,  1055,  1086,  1117,  1148,  1179,  1210,  1241,  1272,  1303,  1334,  1365,  1396,  1427,  1458
  1489,  1520,  1551,  1582,  1613,  1644,  1675,  1706,  1737,  1768,  1799,  1830,  1861,  1892,  1923,  1954
  1985,  2016,  2047,  2078,  2109,  2140,  2171,  2202,  2233,  2264,  2295,  2326,  2357,  2388,  2419,  2450
  2481,  2512,  2543,  2574,  2605,  2636,  2667,  2698,  2729,  2760,  2791,  2822,  2853,  2884,  2915,  2946
  2977,  3008,  3039,  3070,  3101,  3132,  3163,  3194,  3225,  3256,  3287,  3318,  3349,  3380,  3411,  3442
  3473,  3504,  3535,  3566,  3597,  3628,  3659,  3690,  3721,  3752,  3783,  3814,  3845,  3876,  3907,  3938
  3969,  4030,  4061,  4092,  4123,  4154,  4185,  4216,  4247,  4278,  4309,  4340,  4371,  4402,  4433,  4464
  4495,  4526,  4557,  4588,  4619,  4650,  4681,  4712,  4743,  4774,  4805,  4836,  4867,  4898,  4929,  4960
  4991,  5022,  5053,  5084,  5115,  5146,  5177,  5208,  5239,  5270,  5301,  5332,  5363,  5394,  5425,  5456
  5487,  5518,  5549,  5580,  5611,  5642,  5673,  5704,  5735,  5766,  5797,  5828,  5859,  5890,  5921,  5952
  5983,  6014,  6045,  6076,  6107,  6138,  6169,  6200,  6231,  6262,  6293,  6324,  6355,  6386,  6417,  6448
  6479,  6510,  6541,  6572,  6603,  6634,  6665,  6696,  6727,  6758,  6789,  6820,  6851,  6882,  6913,  6944
  6975,  7006,  7037,  7068,  7099,  7130,  7161,  7192,  7223,  7254,  7285,  7316,  7347,  7378,  7409,  7440
  7471,  7502,  7533,  7564,  7595,  7626,  7657,  7688,  7719,  7750,  7781,  7812,  7843,  7874,  7905,  7936
  7967,  7998,  8029,  8060,  8091,  8122,  8153,  8184,  8215,  8246,  8277,  8308,  8339,  8370,  8401,  8432
  8463,  8494,  8525,  8556,  8587,  8618,  8649,  8680,  8711,  8742,  8773,  8804,  8835,  8866,  8897,  8928
  8959,  8990,  9021,  9052,  9083,  9114,  9145,  9176,  9207,  9238,  9269,  9300,  9331,  9362,  9393,  9424
  9455,  9486,  9517,  9548,  9579,  9610,  9641,  9672,  9703,  9734,  9765,  9796,  9827,  9858,  9889,  9920
** ... 6 like lines cut
*Nset, nset=ROCK_OUTPUT, instance=ROCK_INST, generate
     1,  13120,      1
*Elset, elset=ROCK_OUTPUT, instance=ROCK_INST, generate
     1,  12679,      1
*Nset, nset=SET_ROCK_STRESS_MONITOR, instance=ROCK_INST
 3,
*Nset, nset=SET_STRESS_MONITOR, instance=PIPE_INST
 4,
*Nset, nset=YSYM_BASE, instance=FLUID_INST
   3,   4, 142, 143, 144, 145, 146, 147, 148
*Nset, nset=YSYM_BASE, instance=PIPE_INST
   3,   4, 138, 139, 140
*Nset, nset=YSYM_BASE, instance=ROCK_INST
   3,   4, 165, 166, 167, 168, 169, 170, 171, 172, 173, 174, 175, 176, 177, 178
 179, 180, 181, 182, 183, 184, 185, 186, 187, 188, 189, 190, 191, 192, 193, 194
*Elset, elset=YSYM_BASE, instance=FLUID_INST, generate
 1025,  1032,     1
*Elset, elset=YSYM_BASE, instance=PIPE_INST, generate
 513,  516,    1
*Elset, elset=YSYM_BASE, instance=ROCK_INST, generate
 3969,  3999,     1
*Nset, nset=YSYM_TOP, instance=FLUID_INST
   5,   6, 556, 557, 558, 559, 560, 561, 562
*Nset, nset=YSYM_TOP, instance=PIPE_INST
   5,   6, 548, 549, 550
*Nset, nset=YSYM_TOP, instance=ROCK_INST
   5,   6, 602, 603, 604, 605, 606, 607, 608, 609, 610, 611, 612, 613, 614, 615
 616, 617, 618, 619, 620, 621, 622, 623, 624, 625, 626, 627, 628, 629, 630, 631
*Elset, elset=YSYM_TOP, instance=FLUID_INST, generate
 3265,  3272,     1
*Elset, elset=YSYM_TOP, instance=PIPE_INST, generate
 1633,  1636,     1
*Elset, elset=YSYM_TOP, instance=ROCK_INST, generate
 12649,  12679,      1
*Elset, elset=_FASEI_ANNULAR_S2, internal, instance=FLUID_INST, generate
    8,  3272,     8
*Elset, elset=_FASEI_ANNULAR_S3, internal, instance=FLUID_INST
 1025, 1026, 1027, 1028, 1029, 1030, 1031, 1032, 3265, 3266, 3267, 3268, 3269, 3270, 3271, 3272
*Elset, elset=_FASEI_ANNULAR_S4, internal, instance=FLUID_INST, generate
    1,  3265,     8
*Surface, type=ELEMENT, name=FASEI_ANNULAR
_FASEI_ANNULAR_S2, S2
_FASEI_ANNULAR_S3, S3
_FASEI_ANNULAR_S4, S4
*Elset, elset=_FASEI_COMPLETED_WELL_S2, internal, instance=PIPE_INST, generate
   4,  516,    4
*Elset, elset=_FASEI_COMPLETED_WELL_S4, internal, instance=PIPE_INST, generate
  517,  1633,     4
*Surface, type=ELEMENT, name=FASEI_COMPLETED_WELL
_FASEI_COMPLETED_WELL_S2, S2
_FASEI_COMPLETED_WELL_S4, S4
*Elset, elset=_FASEI_FLUIDO_S4, internal, instance=PIPE_INST, generate
   1,  513,    4
*Elset, elset=_FASEI_FLUIDO_S4, internal, instance=ROCK_INST, generate
  4000,  12649,     31
*Elset, elset=_FASEI_FLUIDO_S2, internal, instance=PIPE_INST, generate
  520,  1636,     4
*Elset, elset=_FASEI_FLUIDO_S2, internal, instance=ROCK_INST, generate
   31,  3999,    31
*Surface, type=ELEMENT, name=FASEI_FLUIDO
_FASEI_FLUIDO_S4, S4
_FASEI_FLUIDO_S2, S2
*Elset, elset=_FASEI_MASTER_S4, internal, instance=PIPE_INST, generate
   1,  513,    4
*Elset, elset=_FASEI_MASTER_S2, internal, instance=PIPE_INST, generate
  520,  1636,     4
*Surface, type=ELEMENT, name=FASEI_MASTER
_FASEI_MASTER_S4, S4
_FASEI_MASTER_S2, S2
*Elset, elset=_FASEI_OPEN_WELL_S2, internal, instance=ROCK_INST, generate
   31,  3999,    31
*Elset, elset=_FASEI_OPEN_WELL_S4, internal, instance=ROCK_INST, generate
  4000,  12649,     31
*Surface, type=ELEMENT, name=FASEI_OPEN_WELL
_FASEI_OPEN_WELL_S2, S2
_FASEI_OPEN_WELL_S4, S4
*Elset, elset=_FASEI_REV_S2, internal, instance=PIPE_INST, generate
    4,  1636,     4
*Elset, elset=_FASEI_REV_S3, internal, instance=PIPE_INST
  513,  514,  515,  516, 1633, 1634, 1635, 1636
*Elset, elset=_FASEI_REV_S4, internal, instance=PIPE_INST, generate
    1,  1633,     4
*Surface, type=ELEMENT, name=FASEI_REV
_FASEI_REV_S2, S2
_FASEI_REV_S3, S3
_FASEI_REV_S4, S4
*Elset, elset=_FASEI_WELL_S2, internal, instance=ROCK_INST, generate
   31,  3999,    31
*Elset, elset=_FASEI_WELL_S4, internal, instance=ROCK_INST, generate
  4000,  12649,     31
*Surface, type=ELEMENT, name=FASEI_WELL
_FASEI_WELL_S2, S2
_FASEI_WELL_S4, S4
*Surface, type=NODE, name=ROCK_INST_FASEI_SLAVE_CNS_, internal
ROCK_INST.FASEI_SLAVE, 1.
*End Assembly
** 
** MATERIALS
** 
*Material, name=FLUID
*Conductivity
 0.702,
*Density
1.,
*Elastic
10000.,0.
*Specific Heat
2060.,
*Material, name=LAYER_01_SANDSTONE
*Conductivity
 1.869,
*Density
 2299.92,
*Elastic
 2.4062e+10, 0.25
*Expansion
 1e-05,
*Specific Heat
 0.209946,
*Mohr Coulomb
30., 7.5
*Mohr Coulomb Hardening
 2.00017e+07,0.
*Material, name=LAYER_02_HALITE
*Conductivity
 5.55,
*Creep, law=DOUBLE POWER
 0.0077864,    6042.9,      2.94, 0.0076093,    6042.9,      8.15,  1.03e+07
*Density
 2169.93,
*Elastic
 2.04e+10, 0.36
*Expansion
 1e-05,
*Specific Heat
 0.209946,
*Material, name=STEEL
*Conductivity
 45.3452,
*Density
7935.,
*Elastic
 2.06843e+11, 0.3
*Expansion
 0.0001242,
*Plastic
 7.58424e+08,     0., 273.15
 7.58424e+08,   0.25, 273.15
 7.56376e+08,     0., 298.15
 7.56376e+08,   0.25, 298.15
  7.2566e+08,     0., 373.15
  7.2566e+08,   0.25, 373.15
 7.05182e+08,     0., 423.15
 7.05182e+08,   0.25, 423.15
 6.84705e+08,     0., 473.15
 6.84705e+08,   0.25, 473.15
 6.64227e+08,     0., 523.15
 6.64227e+08,   0.25, 523.15
*Specific Heat
 460.9,
** 
** INTERACTION PROPERTIES
** 
*Surface Interaction, name=C_FASEI
1.,
*Friction, slip tolerance=0.005
 0.5,
*Surface Behavior, pressure-overclosure=HARD
*Time Points, name=timePoint
1., 3600., 7200., 14400., 28800., 57600., 86400., 172800.
345600., 691200., 1.3824e+06, 2.7648e+06, 5.5296e+06, 1.10592e+07, 2.21184e+07, 3.1536e+07
6.3072e+07, 1.26144e+08, 2.52288e+08, 5.04576e+08, 9.4608e+08
** 
** PHYSICAL CONSTANTS
** 
*Physical Constants, absolute zero=0., stefan boltzmann=5.67037e-08
** 
** BOUNDARY CONDITIONS
** 
** Name: FIX_FASEI_WELL Type: Symmetry/Antisymmetry/Encastre
*Boundary
FASEI_OPEN_WELL, XSYMM
** Name: PIN_FASEI Type: Symmetry/Antisymmetry/Encastre
*Boundary
PIPE_INST.FASEI_REV, PINNED
** Name: XSYM_ROCK_BC Type: Symmetry/Antisymmetry/Encastre
*Boundary
ROCK_BC, XSYMM
** Name: YSYM_BASE Type: Symmetry/Antisymmetry/Encastre
*Boundary
YSYM_BASE, YSYMM
** Name: YSYM_TOP Type: Symmetry/Antisymmetry/Encastre
*Boundary
YSYM_TOP, YSYMM
** 
** PREDEFINED FIELDS
** 
** Name: NT_FASEI   Type: Temperature Using Field: Geotermico
*Initial Conditions, type=TEMPERATURE
FLUID_INST.1, 311.253
FLUID_INST.2, 311.253
FLUID_INST.3, 321.857
FLUID_INST.4, 321.857
FLUID_INST.5, 287.86
FLUID_INST.6, 287.86
FLUID_INST.7, 311.253
FLUID_INST.8, 311.253
FLUID_INST.9, 311.253
FLUID_INST.10, 311.253
FLUID_INST.11, 311.253
FLUID_INST.12, 311.253
FLUID_INST.13, 311.253
FLUID_INST.14, 311.253
FLUID_INST.15, 311.306
FLUID_INST.16, 311.306
FLUID_INST.17, 311.359
FLUID_INST.18, 311.359
FLUID_INST.19, 311.413
FLUID_INST.20, 311.413
** ... 3670 like lines cut
PIPE_INST.1, 311.253
PIPE_INST.2, 311.253
PIPE_INST.3, 321.857
PIPE_INST.4, 321.857
PIPE_INST.5, 287.86
PIPE_INST.6, 287.86
PIPE_INST.7, 311.253
PIPE_INST.8, 311.253
PIPE_INST.9, 311.253
PIPE_INST.10, 311.253
PIPE_INST.11, 311.306
PIPE_INST.12, 311.306
PIPE_INST.13, 311.359
PIPE_INST.14, 311.359
PIPE_INST.15, 311.413
PIPE_INST.16, 311.413
PIPE_INST.17, 311.466
PIPE_INST.18, 311.466
PIPE_INST.19, 311.519
PIPE_INST.20, 311.519
** ... 2030 like lines cut
** Name: NT_FASEI_ID   Type: Temperature Using Field: Geotermico
*Initial Conditions, type=TEMPERATURE
PIPE_INST.2, 311.253
PIPE_INST.3, 321.857
PIPE_INST.6, 287.86
PIPE_INST.10, 311.253
PIPE_INST.11, 311.306
PIPE_INST.12, 311.306
PIPE_INST.13, 311.359
PIPE_INST.14, 311.359
PIPE_INST.15, 311.413
PIPE_INST.16, 311.413
PIPE_INST.17, 311.466
PIPE_INST.18, 311.466
PIPE_INST.19, 311.519
PIPE_INST.20, 311.519
PIPE_INST.21, 311.573
PIPE_INST.22, 311.626
PIPE_INST.23, 311.626
PIPE_INST.24, 311.679
PIPE_INST.25, 311.679
PIPE_INST.26, 311.732
** ... 390 like lines cut
** Name: NT_L1-I   Type: Temperature Using Field: NT_L1-I
*Initial Conditions, type=TEMPERATURE
ROCK_INST.1, 311.261
ROCK_INST.2, 311.261
ROCK_INST.5, 287.814
ROCK_INST.6, 287.814
ROCK_INST.7, 311.261
ROCK_INST.8, 311.261
ROCK_INST.9, 311.261
ROCK_INST.10, 311.261
ROCK_INST.11, 311.261
ROCK_INST.12, 311.261
ROCK_INST.13, 311.261
ROCK_INST.14, 311.261
ROCK_INST.15, 311.261
ROCK_INST.16, 311.261
ROCK_INST.17, 311.261
ROCK_INST.18, 311.261
ROCK_INST.19, 311.261
ROCK_INST.20, 311.261
ROCK_INST.21, 311.261
ROCK_INST.22, 311.261
** ... 8972 like lines cut
** Name: NT_L1-I_OD   Type: Temperature Using Field: NT_L1-I
*Initial Conditions, type=TEMPERATURE
ROCK_INST.1, 311.261
ROCK_INST.5, 287.814
ROCK_INST.323, 311.239
ROCK_INST.324, 311.218
ROCK_INST.325, 311.196
ROCK_INST.326, 311.173
ROCK_INST.327, 311.15
ROCK_INST.328, 311.127
ROCK_INST.329, 311.104
ROCK_INST.330, 311.08
ROCK_INST.331, 311.055
ROCK_INST.332, 311.031
ROCK_INST.333, 311.005
ROCK_INST.334, 310.98
ROCK_INST.335, 310.954
ROCK_INST.336, 310.927
ROCK_INST.337, 310.901
ROCK_INST.338, 310.873
ROCK_INST.339, 310.845
ROCK_INST.340, 310.817
** ... 261 like lines cut
** Name: NT_L2-I   Type: Temperature Using Field: NT_L2-I
*Initial Conditions, type=TEMPERATURE
ROCK_INST.1, 311.206
ROCK_INST.2, 311.206
ROCK_INST.3, 321.861
ROCK_INST.4, 321.861
ROCK_INST.7, 311.206
ROCK_INST.8, 311.206
ROCK_INST.9, 311.206
ROCK_INST.10, 311.206
ROCK_INST.11, 311.206
ROCK_INST.12, 311.206
ROCK_INST.13, 311.206
ROCK_INST.14, 311.206
ROCK_INST.15, 311.206
ROCK_INST.16, 311.206
ROCK_INST.17, 311.206
ROCK_INST.18, 311.206
ROCK_INST.19, 311.206
ROCK_INST.20, 311.206
ROCK_INST.21, 311.206
ROCK_INST.22, 311.206
** ... 4140 like lines cut
** Name: NT_L2-I_OD   Type: Temperature Using Field: NT_L2-I
*Initial Conditions, type=TEMPERATURE
ROCK_INST.1, 311.206
ROCK_INST.4, 321.861
ROCK_INST.195, 321.84
ROCK_INST.196, 321.818
ROCK_INST.197, 321.795
ROCK_INST.198, 321.771
ROCK_INST.199, 321.747
ROCK_INST.200, 321.721
ROCK_INST.201, 321.695
ROCK_INST.202, 321.667
ROCK_INST.203, 321.639
ROCK_INST.204, 321.609
ROCK_INST.205, 321.579
ROCK_INST.206, 321.547
ROCK_INST.207, 321.514
ROCK_INST.208, 321.48
ROCK_INST.209, 321.445
ROCK_INST.210, 321.409
ROCK_INST.211, 321.371
ROCK_INST.212, 321.332
** ... 110 like lines cut
** Name: S_FASEI_REV   Type: Geostatic stress
*Initial Conditions, type=STRESS, GEOSTATIC
PIPE_INST.FASEI_REV, 1.62564e+08, -2500., 3.80162e+07, -4100., 0., 0.
** Name: S_L1-I   Type: Geostatic stress
*Initial Conditions, type=STRESS, GEOSTATIC
ROCK_INST.L1-I, -3.1263e+07, -2500., -5.60815e+07, -3600., 1., 1.
** Name: S_L2-I   Type: Geostatic stress
*Initial Conditions, type=STRESS, GEOSTATIC
ROCK_INST.L2-I, -5.60815e+07, -3600., -6.6725e+07, -4100., 1., 1.
** 
** INTERACTIONS
** 
** Interaction: C_FASEI
*Contact Pair, interaction=C_FASEI, type=SURFACE TO SURFACE
ROCK_INST_FASEI_SLAVE_CNS_, FASEI_MASTER
** ----------------------------------------------------------------
** 
** STEP: Geostatic
** 
*Step, name=Geostatic, nlgeom=YES
*Geostatic
** 
** LOADS
** 
** Name: GRAVITY   Type: Gravity
*Dload, op=NEW
, GRAV, 9.81, , -1.
** 
** INTERACTIONS
** 
** Interaction: C_FASEI
*Model Change, type=CONTACT PAIR, remove
ROCK_INST_FASEI_SLAVE_CNS_, FASEI_MASTER
** Interaction: MC_FASEI_FLUIDO
*Model Change, remove
FLUID_INST.FASEI_FLUIDO, 
** Interaction: MC_FASEI_REV
*Model Change, remove
PIPE_INST.FASEI_REV, 
** 
** OUTPUT REQUESTS
** 
*Restart, write, frequency=0
** 
** FIELD OUTPUT: FASEI_REV
** 
*Output, field
*Node Output, nset=PIPE_INST.FASEI_REV
NT, U
*Element Output, elset=PIPE_INST.FASEI_REV, directions=YES
E, MISES, PE, S, PEEQ
*Contact Output, nset=PIPE_INST.FASEI_REV
CSTRESS, 
** 
** FIELD OUTPUT: ROCK_OUTPUT
** 
*Node Output, nset=ROCK_OUTPUT
NT, U
*Element Output, elset=ROCK_OUTPUT, directions=YES
MISES, S, TEMP
*Output, history, frequency=0
*End Step
** ----------------------------------------------------------------
** 
** STEP: Transition
** 
*Step, name=Transition, nlgeom=YES
*Static
1., 2., 2e-05, 2.
** 
** LOADS
** 
** Name: GRAVITY   Type: Gravity
*Dload, op=NEW
, GRAV, 9.81, , -1.
** 
** OUTPUT REQUESTS
** 
*Restart, write, frequency=0
** 
** FIELD OUTPUT: FASEI_REV
** 
*Output, field
*Node Output, nset=PIPE_INST.FASEI_REV
NT, U
*Element Output, elset=PIPE_INST.FASEI_REV, directions=YES
E, MISES, PE, S, PEEQ
*Contact Output, nset=PIPE_INST.FASEI_REV
CSTRESS, 
** 
** FIELD OUTPUT: ROCK_OUTPUT
** 
*Node Output, nset=ROCK_OUTPUT
NT, U
*Element Output, elset=ROCK_OUTPUT, directions=YES
MISES, S, TEMP
*Output, history, frequency=0
*End Step
** ----------------------------------------------------------------
** 
** STEP: TempDefine
** 
*Step, name=TempDefine, nlgeom=YES
*Static
1., 3., 3e-05, 3.
** 
** LOADS
** 
** Name: GRAVITY   Type: Gravity
*Dload, op=NEW
, GRAV, 9.81, , -1.
** 
** OUTPUT REQUESTS
** 
*Restart, write, frequency=0
** 
** FIELD OUTPUT: FASEI_REV
** 
*Output, field
*Node Output, nset=PIPE_INST.FASEI_REV
NT, U
*Element Output, elset=PIPE_INST.FASEI_REV, directions=YES
E, MISES, PE, S, PEEQ
*Contact Output, nset=PIPE_INST.FASEI_REV
CSTRESS, 
** 
** FIELD OUTPUT: ROCK_OUTPUT
** 
*Node Output, nset=ROCK_OUTPUT
NT, U
*Element Output, elset=ROCK_OUTPUT, directions=YES
MISES, S, TEMP
*Output, history, frequency=0
*End Step
** ----------------------------------------------------------------
** 
** STEP: Perf_10_375
** 
*Step, name=Perf_10_375, nlgeom=YES
*Static
1., 1., 1e-05, 1.
** 
** BOUNDARY CONDITIONS
** 
** Name: FIX_FASEI_WELL Type: Symmetry/Antisymmetry/Encastre
*Boundary, op=NEW
** Name: PIN_FASEI Type: Symmetry/Antisymmetry/Encastre
*Boundary, op=NEW
PIPE_INST.FASEI_REV, PINNED
** Name: XSYM_ROCK_BC Type: Symmetry/Antisymmetry/Encastre
*Boundary, op=NEW
ROCK_BC, XSYMM
** Name: YSYM_BASE Type: Symmetry/Antisymmetry/Encastre
*Boundary, op=NEW
YSYM_BASE, YSYMM
** Name: YSYM_TOP Type: Symmetry/Antisymmetry/Encastre
*Boundary, op=NEW
YSYM_TOP, YSYMM
** 
** LOADS
** 
** Name: GRAVITY   Type: Gravity
*Dload, op=NEW
, GRAV, 9.81, , -1.
** Name: P_FASEI_OPEN_WELL   Type: Pressure Using Field: P_FASEI_OPEN_WELL
*Dload, op=NEW
ROCK_INST.31, P2, 3.59751e+07
ROCK_INST.62, P2, 3.59853e+07
ROCK_INST.93, P2, 3.59958e+07
ROCK_INST.124, P2, 3.60067e+07
ROCK_INST.155, P2, 3.60181e+07
ROCK_INST.186, P2, 3.60298e+07
ROCK_INST.217, P2, 3.6042e+07
ROCK_INST.248, P2, 3.60546e+07
ROCK_INST.279, P2, 3.60677e+07
ROCK_INST.310, P2, 3.60813e+07
ROCK_INST.341, P2, 3.60953e+07
ROCK_INST.372, P2, 3.61099e+07
ROCK_INST.403, P2, 3.6125e+07
ROCK_INST.434, P2, 3.61406e+07
ROCK_INST.465, P2, 3.61569e+07
ROCK_INST.496, P2, 3.61737e+07
ROCK_INST.527, P2, 3.61911e+07
ROCK_INST.558, P2, 3.62092e+07
ROCK_INST.589, P2, 3.62279e+07
ROCK_INST.620, P2, 3.62474e+07
** ... 389 like lines cut
** 
** OUTPUT REQUESTS
** 
*Restart, write, frequency=0
** 
** FIELD OUTPUT: FASEI_REV
** 
*Output, field
*Node Output, nset=PIPE_INST.FASEI_REV
NT, U
*Element Output, elset=PIPE_INST.FASEI_REV, directions=YES
E, MISES, PE, S, PEEQ
*Contact Output, nset=PIPE_INST.FASEI_REV
CSTRESS, 
** 
** FIELD OUTPUT: ROCK_OUTPUT
** 
*Node Output, nset=ROCK_OUTPUT
NT, U
*Element Output, elset=ROCK_OUTPUT, directions=YES
MISES, S, TEMP
*Output, history, frequency=0
*End Step
** ----------------------------------------------------------------
** 
** STEP: Perf_10_375_Creep
** 
*Step, name=Perf_10_375_Creep, nlgeom=YES, inc=1000000
*Visco, cetol=0.0001
1e-06, 172800., 1e-15, 172800.
** 
** LOADS
** 
** Name: GRAVITY   Type: Gravity
*Dload, op=NEW
, GRAV, 9.81, , -1.
** Name: P_FASEI_OPEN_WELL   Type: Pressure Using Field: P_FASEI_OPEN_WELL
*Dload, op=NEW
ROCK_INST.31, P2, 3.59751e+07
ROCK_INST.62, P2, 3.59853e+07
ROCK_INST.93, P2, 3.59958e+07
ROCK_INST.124, P2, 3.60067e+07
ROCK_INST.155, P2, 3.60181e+07
ROCK_INST.186, P2, 3.60298e+07
ROCK_INST.217, P2, 3.6042e+07
ROCK_INST.248, P2, 3.60546e+07
ROCK_INST.279, P2, 3.60677e+07
ROCK_INST.310, P2, 3.60813e+07
ROCK_INST.341, P2, 3.60953e+07
ROCK_INST.372, P2, 3.61099e+07
ROCK_INST.403, P2, 3.6125e+07
ROCK_INST.434, P2, 3.61406e+07
ROCK_INST.465, P2, 3.61569e+07
ROCK_INST.496, P2, 3.61737e+07
ROCK_INST.527, P2, 3.61911e+07
ROCK_INST.558, P2, 3.62092e+07
ROCK_INST.589, P2, 3.62279e+07
ROCK_INST.620, P2, 3.62474e+07
** ... 389 like lines cut
** 
** OUTPUT REQUESTS
** 
*Restart, write, frequency=0
** 
** FIELD OUTPUT: FASEI_REV
** 
*Output, field
*Node Output, nset=PIPE_INST.FASEI_REV
NT, U
*Element Output, elset=PIPE_INST.FASEI_REV, directions=YES
E, MISES, PE, S, PEEQ
*Contact Output, nset=PIPE_INST.FASEI_REV
CSTRESS, 
** 
** FIELD OUTPUT: ROCK_OUTPUT
** 
*Node Output, nset=ROCK_OUTPUT
NT, U
*Element Output, elset=ROCK_OUTPUT, directions=YES
MISES, S, TEMP
*Output, history, frequency=0
*End Step
** ----------------------------------------------------------------
** 
** STEP: Rev_9_875
** 
*Step, name=Rev_9_875, nlgeom=YES
*Static
1., 1., 1e-15, 1.
** 
** BOUNDARY CONDITIONS
** 
** Name: PIN_FASEI Type: Symmetry/Antisymmetry/Encastre
*Boundary, op=NEW
** Name: XSYM_ROCK_BC Type: Symmetry/Antisymmetry/Encastre
*Boundary, op=NEW
ROCK_BC, XSYMM
** Name: YSYM_BASE Type: Symmetry/Antisymmetry/Encastre
*Boundary, op=NEW
YSYM_BASE, YSYMM
** Name: YSYM_TOP Type: Symmetry/Antisymmetry/Encastre
*Boundary, op=NEW
YSYM_TOP, YSYMM
** 
** LOADS
** 
** Name: GRAVITY   Type: Gravity
*Dload, op=NEW
, GRAV, 9.81, , -1.
** Name: P_FASEI_COMPLETED_WELL   Type: Pressure Using Field: P_FASEI_COMPLETED_WELL
*Dload, op=NEW
PIPE_INST.4, P2, 3.59751e+07
PIPE_INST.8, P2, 3.59853e+07
PIPE_INST.12, P2, 3.59958e+07
PIPE_INST.16, P2, 3.60067e+07
PIPE_INST.20, P2, 3.60181e+07
PIPE_INST.24, P2, 3.60298e+07
PIPE_INST.28, P2, 3.6042e+07
PIPE_INST.32, P2, 3.60546e+07
PIPE_INST.36, P2, 3.60677e+07
PIPE_INST.40, P2, 3.60813e+07
PIPE_INST.44, P2, 3.60953e+07
PIPE_INST.48, P2, 3.61099e+07
PIPE_INST.52, P2, 3.6125e+07
PIPE_INST.56, P2, 3.61406e+07
PIPE_INST.60, P2, 3.61569e+07
PIPE_INST.64, P2, 3.61737e+07
PIPE_INST.68, P2, 3.61911e+07
PIPE_INST.72, P2, 3.62092e+07
PIPE_INST.76, P2, 3.62279e+07
PIPE_INST.80, P2, 3.62474e+07
** ... 389 like lines cut
** Name: P_FASEI_FLUID   Type: Pressure Using Field: P_FASEI_FLUID
*Dload, op=NEW
PIPE_INST.1, P4, 3.59751e+07
PIPE_INST.5, P4, 3.59853e+07
PIPE_INST.9, P4, 3.59958e+07
PIPE_INST.13, P4, 3.60067e+07
PIPE_INST.17, P4, 3.60181e+07
PIPE_INST.21, P4, 3.60298e+07
PIPE_INST.25, P4, 3.6042e+07
PIPE_INST.29, P4, 3.60546e+07
PIPE_INST.33, P4, 3.60677e+07
PIPE_INST.37, P4, 3.60813e+07
PIPE_INST.41, P4, 3.60953e+07
PIPE_INST.45, P4, 3.61099e+07
PIPE_INST.49, P4, 3.6125e+07
PIPE_INST.53, P4, 3.61406e+07
PIPE_INST.57, P4, 3.61569e+07
PIPE_INST.61, P4, 3.61737e+07
PIPE_INST.65, P4, 3.61911e+07
PIPE_INST.69, P4, 3.62092e+07
PIPE_INST.73, P4, 3.62279e+07
PIPE_INST.77, P4, 3.62474e+07
** ... 389 like lines cut
ROCK_INST.31, P2, 3.59751e+07
ROCK_INST.62, P2, 3.59853e+07
ROCK_INST.93, P2, 3.59958e+07
ROCK_INST.124, P2, 3.60067e+07
ROCK_INST.155, P2, 3.60181e+07
ROCK_INST.186, P2, 3.60298e+07
ROCK_INST.217, P2, 3.6042e+07
ROCK_INST.248, P2, 3.60546e+07
ROCK_INST.279, P2, 3.60677e+07
ROCK_INST.310, P2, 3.60813e+07
ROCK_INST.341, P2, 3.60953e+07
ROCK_INST.372, P2, 3.61099e+07
ROCK_INST.403, P2, 3.6125e+07
ROCK_INST.434, P2, 3.61406e+07
ROCK_INST.465, P2, 3.61569e+07
ROCK_INST.496, P2, 3.61737e+07
ROCK_INST.527, P2, 3.61911e+07
ROCK_INST.558, P2, 3.62092e+07
ROCK_INST.589, P2, 3.62279e+07
ROCK_INST.620, P2, 3.62474e+07
** ... 389 like lines cut
** Name: P_FASEI_OPEN_WELL   Type: Pressure Using Field: P_FASEI_OPEN_WELL
*Dload, op=NEW
** 
** INTERACTIONS
** 
** Interaction: C_FASEI
*Model Change, type=CONTACT PAIR, add
ROCK_INST_FASEI_SLAVE_CNS_, FASEI_MASTER
** Interaction: MC_FASEI_REV
*Model Change, add
PIPE_INST.FASEI_REV, 
** 
** OUTPUT REQUESTS
** 
*Restart, write, frequency=0
** 
** FIELD OUTPUT: FASEI_REV
** 
*Output, field
*Node Output, nset=PIPE_INST.FASEI_REV
NT, U
*Element Output, elset=PIPE_INST.FASEI_REV, directions=YES
E, MISES, PE, S, PEEQ
*Contact Output, nset=PIPE_INST.FASEI_REV
CSTRESS, 
** 
** FIELD OUTPUT: ROCK_OUTPUT
** 
*Node Output, nset=ROCK_OUTPUT
NT, U
*Element Output, elset=ROCK_OUTPUT, directions=YES
MISES, S, TEMP
*Output, history, frequency=0
*End Step
** ----------------------------------------------------------------
** 
** STEP: Rev_9_875_Creep
** 
*Step, name=Rev_9_875_Creep, nlgeom=YES, inc=1000000
*Visco, cetol=0.0001
1e-06, 9.4608e+08, 1e-15, 1.5552e+07
** 
** LOADS
** 
** Name: GRAVITY   Type: Gravity
*Dload, op=NEW
, GRAV, 9.81, , -1.
** Name: P_FASEI_COMPLETED_WELL   Type: Pressure Using Field: P_FASEI_COMPLETED_WELL
*Dload, op=NEW
PIPE_INST.4, P2, 3.59751e+07
PIPE_INST.8, P2, 3.59853e+07
PIPE_INST.12, P2, 3.59958e+07
PIPE_INST.16, P2, 3.60067e+07
PIPE_INST.20, P2, 3.60181e+07
PIPE_INST.24, P2, 3.60298e+07
PIPE_INST.28, P2, 3.6042e+07
PIPE_INST.32, P2, 3.60546e+07
PIPE_INST.36, P2, 3.60677e+07
PIPE_INST.40, P2, 3.60813e+07
PIPE_INST.44, P2, 3.60953e+07
PIPE_INST.48, P2, 3.61099e+07
PIPE_INST.52, P2, 3.6125e+07
PIPE_INST.56, P2, 3.61406e+07
PIPE_INST.60, P2, 3.61569e+07
PIPE_INST.64, P2, 3.61737e+07
PIPE_INST.68, P2, 3.61911e+07
PIPE_INST.72, P2, 3.62092e+07
PIPE_INST.76, P2, 3.62279e+07
PIPE_INST.80, P2, 3.62474e+07
** ... 389 like lines cut
** Name: P_FASEI_FLUID   Type: Pressure Using Field: P_FASEI_FLUID
*Dload, op=NEW
PIPE_INST.1, P4, 3.59751e+07
PIPE_INST.5, P4, 3.59853e+07
PIPE_INST.9, P4, 3.59958e+07
PIPE_INST.13, P4, 3.60067e+07
PIPE_INST.17, P4, 3.60181e+07
PIPE_INST.21, P4, 3.60298e+07
PIPE_INST.25, P4, 3.6042e+07
PIPE_INST.29, P4, 3.60546e+07
PIPE_INST.33, P4, 3.60677e+07
PIPE_INST.37, P4, 3.60813e+07
PIPE_INST.41, P4, 3.60953e+07
PIPE_INST.45, P4, 3.61099e+07
PIPE_INST.49, P4, 3.6125e+07
PIPE_INST.53, P4, 3.61406e+07
PIPE_INST.57, P4, 3.61569e+07
PIPE_INST.61, P4, 3.61737e+07
PIPE_INST.65, P4, 3.61911e+07
PIPE_INST.69, P4, 3.62092e+07
PIPE_INST.73, P4, 3.62279e+07
PIPE_INST.77, P4, 3.62474e+07
** ... 389 like lines cut
ROCK_INST.31, P2, 3.59751e+07
ROCK_INST.62, P2, 3.59853e+07
ROCK_INST.93, P2, 3.59958e+07
ROCK_INST.124, P2, 3.60067e+07
ROCK_INST.155, P2, 3.60181e+07
ROCK_INST.186, P2, 3.60298e+07
ROCK_INST.217, P2, 3.6042e+07
ROCK_INST.248, P2, 3.60546e+07
ROCK_INST.279, P2, 3.60677e+07
ROCK_INST.310, P2, 3.60813e+07
ROCK_INST.341, P2, 3.60953e+07
ROCK_INST.372, P2, 3.61099e+07
ROCK_INST.403, P2, 3.6125e+07
ROCK_INST.434, P2, 3.61406e+07
ROCK_INST.465, P2, 3.61569e+07
ROCK_INST.496, P2, 3.61737e+07
ROCK_INST.527, P2, 3.61911e+07
ROCK_INST.558, P2, 3.62092e+07
ROCK_INST.589, P2, 3.62279e+07
ROCK_INST.620, P2, 3.62474e+07
** ... 389 like lines cut
** 
** OUTPUT REQUESTS
** 
*Restart, write, frequency=0
** 
** FIELD OUTPUT: FASEI_REV
** 
*Output, field
*Node Output, nset=PIPE_INST.FASEI_REV
NT, U
*Element Output, elset=PIPE_INST.FASEI_REV, directions=YES
E, MISES, PE, S, PEEQ
*Contact Output, nset=PIPE_INST.FASEI_REV
CSTRESS, 
** 
** FIELD OUTPUT: ROCK_OUTPUT
** 
*Node Output, nset=ROCK_OUTPUT
NT, U
*Element Output, elset=ROCK_OUTPUT, directions=YES
MISES, S, TEMP
*Output, history, frequency=0
*End Step
