*Heading
** Job name: WellClosureJob Model name: MyFirstModel
** Generated by: Abaqus/CAE 2024
*Preprint, echo=NO, model=NO, history=NO, contact=NO
**
** PARTS
**
*Part, name=FLUID
*End Part
**  
*Part, name=PIPE
*End Part
**  
*Part, name=ROCK
*End Part
**  
**
** ASSEMBLY
**
*Assembly, name=Assembly
**  
*Instance, name=FLUID_INST, part=FLUID
*Node
      1,  0.155575007,       -3600.
      2,   0.14088428,       -3600.
      3,   0.14088428,       -4100.
      4,  0.155575007,       -4100.
      5,  0.155575007,       -2500.
      6,   0.14088428,       -2500.
      7,  0.151902318,       -3600.
      8,  0.148229644,       -3600.
      9,  0.144556955,       -3600.
     10,   0.14088428,       -3601.
     11,   0.14088428,  -3602.03662
     12,   0.14088428,  -3603.11108
     13,   0.14088428,  -3604.22485
     14,   0.14088428,  -3605.37939
     15,   0.14088428,  -3606.57593
     16,   0.14088428,  -3607.81641
     17,   0.14088428,  -3609.10229
     18,   0.14088428,  -3610.43506
     19,   0.14088428,  -3611.81665
     20,   0.14088428,  -3613.24878
** ... 2030 like lines cut
*Element, type=CAX4
  1,    1,    7,  830,  268
  2,    7,    8,  831,  830
  3,    8,    9,  832,  831
  4,    9,    2,   10,  832
  5,  268,  830,  833,  267
  6,  830,  831,  834,  833
  7,  831,  832,  835,  834
  8,  832,   10,   11,  835
  9,  267,  833,  836,  266
 10,  833,  834,  837,  836
 11,  834,  835,  838,  837
 12,  835,   11,   12,  838
 13,  266,  836,  839,  265
 14,  836,  837,  840,  839
 15,  837,  838,  841,  840
 16,  838,   12,   13,  841
 17,  265,  839,  842,  264
 18,  839,  840,  843,  842
 19,  840,  841,  844,  843
 20,  841,   13,   14,  844
** ... 1616 like lines cut
*Nset, nset=FASEI_FLUIDO, generate
    1,  2050,     1
*Elset, elset=FASEI_FLUIDO, generate
    1,  1636,     1
*Nset, nset=FASEI_FLUIDO_BASE
   3,   4, 138, 139, 140
*Elset, elset=FASEI_FLUIDO_BASE, generate
 513,  516,    1
*Nset, nset=FASEI_FLUIDO_ID
   2,   3,   6,  10,  11,  12,  13,  14,  15,  16,  17,  18,  19,  20,  21,  22
  23,  24,  25,  26,  27,  28,  29,  30,  31,  32,  33,  34,  35,  36,  37,  38
  39,  40,  41,  42,  43,  44,  45,  46,  47,  48,  49,  50,  51,  52,  53,  54
  55,  56,  57,  58,  59,  60,  61,  62,  63,  64,  65,  66,  67,  68,  69,  70
  71,  72,  73,  74,  75,  76,  77,  78,  79,  80,  81,  82,  83,  84,  85,  86
  87,  88,  89,  90,  91,  92,  93,  94,  95,  96,  97,  98,  99, 100, 101, 102
 103, 104, 105, 106, 107, 108, 109, 110, 111, 112, 113, 114, 115, 116, 117, 118
 119, 120, 121, 122, 123, 124, 125, 126, 127, 128, 129, 130, 131, 132, 133, 134
 135, 136, 137, 551, 552, 553, 554, 555, 556, 557, 558, 559, 560, 561, 562, 563
 564, 565, 566, 567, 568, 569, 570, 571, 572, 573, 574, 575, 576, 577, 578, 579
 580, 581, 582, 583, 584, 585, 586, 587, 588, 589, 590, 591, 592, 593, 594, 595
 596, 597, 598, 599, 600, 601, 602, 603, 604, 605, 606, 607, 608, 609, 610, 611
 612, 613, 614, 615, 616, 617, 618, 619, 620, 621, 622, 623, 624, 625, 626, 627
 628, 629, 630, 631, 632, 633, 634, 635, 636, 637, 638, 639, 640, 641, 642, 643
 644, 645, 646, 647, 648, 649, 650, 651, 652, 653, 654, 655, 656, 657, 658, 659
 660, 661, 662, 663, 664, 665, 666, 667, 668, 669, 670, 671, 672, 673, 674, 675
 676, 677, 678, 679, 680, 681, 682, 683, 684, 685, 686, 687, 688, 689, 690, 691
 692, 693, 694, 695, 696, 697, 698, 699, 700, 701, 702, 703, 704, 705, 706, 707
 708, 709, 710, 711, 712, 713, 714, 715, 716, 717, 718, 719, 720, 721, 722, 723
 724, 725, 726, 727, 728, 729, 730, 731, 732, 733, 734, 735, 736, 737, 738, 739
** ... 6 like lines cut
*Elset, elset=FASEI_FLUIDO_ID
    4,    8,   12,   16,   20,   24,   28,   32,   36,   40,   44,   48,   52,   56,   60,   64
   68,   72,   76,   80,   84,   88,   92,   96,  100,  104,  108,  112,  116,  120,  124,  128
  132,  136,  140,  144,  148,  152,  156,  160,  164,  168,  172,  176,  180,  184,  188,  192
  196,  200,  204,  208,  212,  216,  220,  224,  228,  232,  236,  240,  244,  248,  252,  256
  260,  264,  268,  272,  276,  280,  284,  288,  292,  296,  300,  304,  308,  312,  316,  320
  324,  328,  332,  336,  340,  344,  348,  352,  356,  360,  364,  368,  372,  376,  380,  384
  388,  392,  396,  400,  404,  408,  412,  416,  420,  424,  428,  432,  436,  440,  444,  448
  452,  456,  460,  464,  468,  472,  476,  480,  484,  488,  492,  496,  500,  504,  508,  512
  516,  517,  521,  525,  529,  533,  537,  541,  545,  549,  553,  557,  561,  565,  569,  573
  577,  581,  585,  589,  593,  597,  601,  605,  609,  613,  617,  621,  625,  629,  633,  637
  641,  645,  649,  653,  657,  661,  665,  669,  673,  677,  681,  685,  689,  693,  697,  701
  705,  709,  713,  717,  721,  725,  729,  733,  737,  741,  745,  749,  753,  757,  761,  765
  769,  773,  777,  781,  785,  789,  793,  797,  801,  805,  809,  813,  817,  821,  825,  829
  833,  837,  841,  845,  849,  853,  857,  861,  865,  869,  873,  877,  881,  885,  889,  893
  897,  901,  905,  909,  913,  917,  921,  925,  929,  933,  937,  941,  945,  949,  953,  957
  961,  965,  969,  973,  977,  981,  985,  989,  993,  997, 1001, 1005, 1009, 1013, 1017, 1021
 1025, 1029, 1033, 1037, 1041, 1045, 1049, 1053, 1057, 1061, 1065, 1069, 1073, 1077, 1081, 1085
 1089, 1093, 1097, 1101, 1105, 1109, 1113, 1117, 1121, 1125, 1129, 1133, 1137, 1141, 1145, 1149
 1153, 1157, 1161, 1165, 1169, 1173, 1177, 1181, 1185, 1189, 1193, 1197, 1201, 1205, 1209, 1213
 1217, 1221, 1225, 1229, 1233, 1237, 1241, 1245, 1249, 1253, 1257, 1261, 1265, 1269, 1273, 1277
** ... 6 like lines cut
*Nset, nset=FASEI_FLUIDO_OD
   1,   4,   5, 141, 142, 143, 144, 145, 146, 147, 148, 149, 150, 151, 152, 153
 154, 155, 156, 157, 158, 159, 160, 161, 162, 163, 164, 165, 166, 167, 168, 169
 170, 171, 172, 173, 174, 175, 176, 177, 178, 179, 180, 181, 182, 183, 184, 185
 186, 187, 188, 189, 190, 191, 192, 193, 194, 195, 196, 197, 198, 199, 200, 201
 202, 203, 204, 205, 206, 207, 208, 209, 210, 211, 212, 213, 214, 215, 216, 217
 218, 219, 220, 221, 222, 223, 224, 225, 226, 227, 228, 229, 230, 231, 232, 233
 234, 235, 236, 237, 238, 239, 240, 241, 242, 243, 244, 245, 246, 247, 248, 249
 250, 251, 252, 253, 254, 255, 256, 257, 258, 259, 260, 261, 262, 263, 264, 265
 266, 267, 268, 269, 270, 271, 272, 273, 274, 275, 276, 277, 278, 279, 280, 281
 282, 283, 284, 285, 286, 287, 288, 289, 290, 291, 292, 293, 294, 295, 296, 297
 298, 299, 300, 301, 302, 303, 304, 305, 306, 307, 308, 309, 310, 311, 312, 313
 314, 315, 316, 317, 318, 319, 320, 321, 322, 323, 324, 325, 326, 327, 328, 329
 330, 331, 332, 333, 334, 335, 336, 337, 338, 339, 340, 341, 342, 343, 344, 345
 346, 347, 348, 349, 350, 351, 352, 353, 354, 355, 356, 357, 358, 359, 360, 361
 362, 363, 364, 365, 366, 367, 368, 369, 370, 371, 372, 373, 374, 375, 376, 377
 378, 379, 380, 381, 382, 383, 384, 385, 386, 387, 388, 389, 390, 391, 392, 393
 394, 395, 396, 397, 398, 399, 400, 401, 402, 403, 404, 405, 406, 407, 408, 409
 410, 411, 412, 413, 414, 415, 416, 417, 418, 419, 420, 421, 422, 423, 424, 425
 426, 427, 428, 429, 430, 431, 432, 433, 434, 435, 436, 437, 438, 439, 440, 441
 442, 443, 444, 445, 446, 447, 448, 449, 450, 451, 452, 453, 454, 455, 456, 457
** ... 6 like lines cut
*Elset, elset=FASEI_FLUIDO_OD
    1,    5,    9,   13,   17,   21,   25,   29,   33,   37,   41,   45,   49,   53,   57,   61
   65,   69,   73,   77,   81,   85,   89,   93,   97,  101,  105,  109,  113,  117,  121,  125
  129,  133,  137,  141,  145,  149,  153,  157,  161,  165,  169,  173,  177,  181,  185,  189
  193,  197,  201,  205,  209,  213,  217,  221,  225,  229,  233,  237,  241,  245,  249,  253
  257,  261,  265,  269,  273,  277,  281,  285,  289,  293,  297,  301,  305,  309,  313,  317
  321,  325,  329,  333,  337,  341,  345,  349,  353,  357,  361,  365,  369,  373,  377,  381
  385,  389,  393,  397,  401,  405,  409,  413,  417,  421,  425,  429,  433,  437,  441,  445
  449,  453,  457,  461,  465,  469,  473,  477,  481,  485,  489,  493,  497,  501,  505,  509
  513,  520,  524,  528,  532,  536,  540,  544,  548,  552,  556,  560,  564,  568,  572,  576
  580,  584,  588,  592,  596,  600,  604,  608,  612,  616,  620,  624,  628,  632,  636,  640
  644,  648,  652,  656,  660,  664,  668,  672,  676,  680,  684,  688,  692,  696,  700,  704
  708,  712,  716,  720,  724,  728,  732,  736,  740,  744,  748,  752,  756,  760,  764,  768
  772,  776,  780,  784,  788,  792,  796,  800,  804,  808,  812,  816,  820,  824,  828,  832
  836,  840,  844,  848,  852,  856,  860,  864,  868,  872,  876,  880,  884,  888,  892,  896
  900,  904,  908,  912,  916,  920,  924,  928,  932,  936,  940,  944,  948,  952,  956,  960
  964,  968,  972,  976,  980,  984,  988,  992,  996, 1000, 1004, 1008, 1012, 1016, 1020, 1024
 1028, 1032, 1036, 1040, 1044, 1048, 1052, 1056, 1060, 1064, 1068, 1072, 1076, 1080, 1084, 1088
 1092, 1096, 1100, 1104, 1108, 1112, 1116, 1120, 1124, 1128, 1132, 1136, 1140, 1144, 1148, 1152
 1156, 1160, 1164, 1168, 1172, 1176, 1180, 1184, 1188, 1192, 1196, 1200, 1204, 1208, 1212, 1216
 1220, 1224, 1228, 1232, 1236, 1240, 1244, 1248, 1252, 1256, 1260, 1264, 1268, 1272, 1276, 1280
** ... 6 like lines cut
*Nset, nset=FASEI_FLUIDO_TOP
   5,   6, 548, 549, 550
*Elset, elset=FASEI_FLUIDO_TOP, generate
 1633,  1636,     1
*Nset, nset=FASEI_ANNULAR, generate
    1,  2050,     1
*Elset, elset=FASEI_ANNULAR, generate
    1,  1636,     1
*Nset, nset=FASEI_ANNULAR_BASE
   3,   4, 138, 139, 140
*Elset, elset=FASEI_ANNULAR_BASE, generate
 513,  516,    1
*Nset, nset=FASEI_ANNULAR_ID
   2,   3,   6,  10,  11,  12,  13,  14,  15,  16,  17,  18,  19,  20,  21,  22
  23,  24,  25,  26,  27,  28,  29,  30,  31,  32,  33,  34,  35,  36,  37,  38
  39,  40,  41,  42,  43,  44,  45,  46,  47,  48,  49,  50,  51,  52,  53,  54
  55,  56,  57,  58,  59,  60,  61,  62,  63,  64,  65,  66,  67,  68,  69,  70
  71,  72,  73,  74,  75,  76,  77,  78,  79,  80,  81,  82,  83,  84,  85,  86
  87,  88,  89,  90,  91,  92,  93,  94,  95,  96,  97,  98,  99, 100, 101, 102
 103, 104, 105, 106, 107, 108, 109, 110, 111, 112, 113, 114, 115, 116, 117, 118
 119, 120, 121, 122, 123, 124, 125, 126, 127, 128, 129, 130, 131, 132, 133, 134
 135, 136, 137, 551, 552, 553, 554, 555, 556, 557, 558, 559, 560, 561, 562, 563
 564, 565, 566, 567, 568, 569, 570, 571, 572, 573, 574, 575, 576, 577, 578, 579
 580, 581, 582, 583, 584, 585, 586, 587, 588, 589, 590, 591, 592, 593, 594, 595
 596, 597, 598, 599, 600, 601, 602, 603, 604, 605, 606, 607, 608, 609, 610, 611
 612, 613, 614, 615, 616, 617, 618, 619, 620, 621, 622, 623, 624, 625, 626, 627
 628, 629, 630, 631, 632, 633, 634, 635, 636, 637, 638, 639, 640, 641, 642, 643
 644, 645, 646, 647, 648, 649, 650, 651, 652, 653, 654, 655, 656, 657, 658, 659
 660, 661, 662, 663, 664, 665, 666, 667, 668, 669, 670, 671, 672, 673, 674, 675
 676, 677, 678, 679, 680, 681, 682, 683, 684, 685, 686, 687, 688, 689, 690, 691
 692, 693, 694, 695, 696, 697, 698, 699, 700, 701, 702, 703, 704, 705, 706, 707
 708, 709, 710, 711, 712, 713, 714, 715, 716, 717, 718, 719, 720, 721, 722, 723
 724, 725, 726, 727, 728, 729, 730, 731, 732, 733, 734, 735, 736, 737, 738, 739
** ... 6 like lines cut
*Elset, elset=FASEI_ANNULAR_ID
    4,    8,   12,   16,   20,   24,   28,   32,   36,   40,   44,   48,   52,   56,   60,   64
   68,   72,   76,   80,   84,   88,   92,   96,  100,  104,  108,  112,  116,  120,  124,  128
  132,  136,  140,  144,  148,  152,  156,  160,  164,  168,  172,  176,  180,  184,  188,  192
  196,  200,  204,  208,  212,  216,  220,  224,  228,  232,  236,  240,  244,  248,  252,  256
  260,  264,  268,  272,  276,  280,  284,  288,  292,  296,  300,  304,  308,  312,  316,  320
  324,  328,  332,  336,  340,  344,  348,  352,  356,  360,  364,  368,  372,  376,  380,  384
  388,  392,  396,  400,  404,  408,  412,  416,  420,  424,  428,  432,  436,  440,  444,  448
  452,  456,  460,  464,  468,  472,  476,  480,  484,  488,  492,  496,  500,  504,  508,  512
  516,  517,  521,  525,  529,  533,  537,  541,  545,  549,  553,  557,  561,  565,  569,  573
  577,  581,  585,  589,  593,  597,  601,  605,  609,  613,  617,  621,  625,  629,  633,  637
  641,  645,  649,  653,  657,  661,  665,  669,  673,  677,  681,  685,  689,  693,  697,  701
  705,  709,  713,  717,  721,  725,  729,  733,  737,  741,  745,  749,  753,  757,  761,  765
  769,  773,  777,  781,  785,  789,  793,  797,  801,  805,  809,  813,  817,  821,  825,  829
  833,  837,  841,  845,  849,  853,  857,  861,  865,  869,  873,  877,  881,  885,  889,  893
  897,  901,  905,  909,  913,  917,  921,  925,  929,  933,  937,  941,  945,  949,  953,  957
  961,  965,  969,  973,  977,  981,  985,  989,  993,  997, 1001, 1005, 1009, 1013, 1017, 1021
 1025, 1029, 1033, 1037, 1041, 1045, 1049, 1053, 1057, 1061, 1065, 1069, 1073, 1077, 1081, 1085
 1089, 1093, 1097, 1101, 1105, 1109, 1113, 1117, 1121, 1125, 1129, 1133, 1137, 1141, 1145, 1149
 1153, 1157, 1161, 1165, 1169, 1173, 1177, 1181, 1185, 1189, 1193, 1197, 1201, 1205, 1209, 1213
 1217, 1221, 1225, 1229, 1233, 1237, 1241, 1245, 1249, 1253, 1257, 1261, 1265, 1269, 1273, 1277
** ... 6 like lines cut
*Nset, nset=FASEI_ANNULAR_OD
   1,   4,   5, 141, 142, 143, 144, 145, 146, 147, 148, 149, 150, 151, 152, 153
 154, 155, 156, 157, 158, 159, 160, 161, 162, 163, 164, 165, 166, 167, 168, 169
 170, 171, 172, 173, 174, 175, 176, 177, 178, 179, 180, 181, 182, 183, 184, 185
 186, 187, 188, 189, 190, 191, 192, 193, 194, 195, 196, 197, 198, 199, 200, 201
 202, 203, 204, 205, 206, 207, 208, 209, 210, 211, 212, 213, 214, 215, 216, 217
 218, 219, 220, 221, 222, 223, 224, 225, 226, 227, 228, 229, 230, 231, 232, 233
 234, 235, 236, 237, 238, 239, 240, 241, 242, 243, 244, 245, 246, 247, 248, 249
 250, 251, 252, 253, 254, 255, 256, 257, 258, 259, 260, 261, 262, 263, 264, 265
 266, 267, 268, 269, 270, 271, 272, 273, 274, 275, 276, 277, 278, 279, 280, 281
 282, 283, 284, 285, 286, 287, 288, 289, 290, 291, 292, 293, 294, 295, 296, 297
 298, 299, 300, 301, 302, 303, 304, 305, 306, 307, 308, 309, 310, 311, 312, 313
 314, 315, 316, 317, 318, 319, 320, 321, 322, 323, 324, 325, 326, 327, 328, 329
 330, 331, 332, 333, 334, 335, 336, 337, 338, 339, 340, 341, 342, 343, 344, 345
 346, 347, 348, 349, 350, 351, 352, 353, 354, 355, 356, 357, 358, 359, 360, 361
 362, 363, 364, 365, 366, 367, 368, 369, 370, 371, 372, 373, 374, 375, 376, 377
 378, 379, 380, 381, 382, 383, 384, 385, 386, 387, 388, 389, 390, 391, 392, 393
 394, 395, 396, 397, 398, 399, 400, 401, 402, 403, 404, 405, 406, 407, 408, 409
 410, 411, 412, 413, 414, 415, 416, 417, 418, 419, 420, 421, 422, 423, 424, 425
 426, 427, 428, 429, 430, 431, 432, 433, 434, 435, 436, 437, 438, 439, 440, 441
 442, 443, 444, 445, 446, 447, 448, 449, 450, 451, 452, 453, 454, 455, 456, 457
** ... 6 like lines cut
*Elset, elset=FASEI_ANNULAR_OD
    1,    5,    9,   13,   17,   21,   25,   29,   33,   37,   41,   45,   49,   53,   57,   61
   65,   69,   73,   77,   81,   85,   89,   93,   97,  101,  105,  109,  113,  117,  121,  125
  129,  133,  137,  141,  145,  149,  153,  157,  161,  165,  169,  173,  177,  181,  185,  189
  193,  197,  201,  205,  209,  213,  217,  221,  225,  229,  233,  237,  241,  245,  249,  253
  257,  261,  265,  269,  273,  277,  281,  285,  289,  293,  297,  301,  305,  309,  313,  317
  321,  325,  329,  333,  337,  341,  345,  349,  353,  357,  361,  365,  369,  373,  377,  381
  385,  389,  393,  397,  401,  405,  409,  413,  417,  421,  425,  429,  433,  437,  441,  445
  449,  453,  457,  461,  465,  469,  473,  477,  481,  485,  489,  493,  497,  501,  505,  509
  513,  520,  524,  528,  532,  536,  540,  544,  548,  552,  556,  560,  564,  568,  572,  576
  580,  584,  588,  592,  596,  600,  604,  608,  612,  616,  620,  624,  628,  632,  636,  640
  644,  648,  652,  656,  660,  664,  668,  672,  676,  680,  684,  688,  692,  696,  700,  704
  708,  712,  716,  720,  724,  728,  732,  736,  740,  744,  748,  752,  756,  760,  764,  768
  772,  776,  780,  784,  788,  792,  796,  800,  804,  808,  812,  816,  820,  824,  828,  832
  836,  840,  844,  848,  852,  856,  860,  864,  868,  872,  876,  880,  884,  888,  892,  896
  900,  904,  908,  912,  916,  920,  924,  928,  932,  936,  940,  944,  948,  952,  956,  960
  964,  968,  972,  976,  980,  984,  988,  992,  996, 1000, 1004, 1008, 1012, 1016, 1020, 1024
 1028, 1032, 1036, 1040, 1044, 1048, 1052, 1056, 1060, 1064, 1068, 1072, 1076, 1080, 1084, 1088
 1092, 1096, 1100, 1104, 1108, 1112, 1116, 1120, 1124, 1128, 1132, 1136, 1140, 1144, 1148, 1152
 1156, 1160, 1164, 1168, 1172, 1176, 1180, 1184, 1188, 1192, 1196, 1200, 1204, 1208, 1212, 1216
 1220, 1224, 1228, 1232, 1236, 1240, 1244, 1248, 1252, 1256, 1260, 1264, 1268, 1272, 1276, 1280
** ... 6 like lines cut
*Nset, nset=FASEI_ANNULAR_TOP
   5,   6, 548, 549, 550
*Elset, elset=FASEI_ANNULAR_TOP, generate
 1633,  1636,     1
*Nset, nset=FASEI_ANNULAR_TT
   1,   2,   3,   4,   5,   6,   7,   8,   9, 138, 139, 140, 548, 549, 550
*Elset, elset=FASEI_ANNULAR_TT
    1,    2,    3,    4,  513,  514,  515,  516,  517,  518,  519,  520, 1633, 1634, 1635, 1636
** Section: FLUID_Section
*Solid Section, elset=FASEI_FLUIDO, material=FLUID
1.,
*End Instance
**  
*Instance, name=PIPE_INST, part=PIPE
*Node
      1,   0.14088428,       -3600.
      2,  0.125009269,       -3600.
      3,  0.125009269,       -4100.
      4,   0.14088428,       -4100.
      5,   0.14088428,       -2500.
      6,  0.125009269,       -2500.
      7,   0.13691552,       -3600.
      8,  0.132946774,       -3600.
      9,  0.128978029,       -3600.
     10,  0.125009269,       -3601.
     11,  0.125009269,  -3602.03662
     12,  0.125009269,  -3603.11108
     13,  0.125009269,  -3604.22485
     14,  0.125009269,  -3605.37939
     15,  0.125009269,  -3606.57593
     16,  0.125009269,  -3607.81641
     17,  0.125009269,  -3609.10229
     18,  0.125009269,  -3610.43506
     19,  0.125009269,  -3611.81665
     20,  0.125009269,  -3613.24878
** ... 2030 like lines cut
*Element, type=CAX4
  1,    1,    7,  830,  268
  2,    7,    8,  831,  830
  3,    8,    9,  832,  831
  4,    9,    2,   10,  832
  5,  268,  830,  833,  267
  6,  830,  831,  834,  833
  7,  831,  832,  835,  834
  8,  832,   10,   11,  835
  9,  267,  833,  836,  266
 10,  833,  834,  837,  836
 11,  834,  835,  838,  837
 12,  835,   11,   12,  838
 13,  266,  836,  839,  265
 14,  836,  837,  840,  839
 15,  837,  838,  841,  840
 16,  838,   12,   13,  841
 17,  265,  839,  842,  264
 18,  839,  840,  843,  842
 19,  840,  841,  844,  843
 20,  841,   13,   14,  844
** ... 1616 like lines cut
*Nset, nset=FASEI_REV, generate
    1,  2050,     1
*Elset, elset=FASEI_REV, generate
    1,  1636,     1
*Nset, nset=FASEI_REV_ABOVE_TOC, generate
    1,  2050,     1
*Elset, elset=FASEI_REV_ABOVE_TOC, generate
    1,  1636,     1
*Nset, nset=FASEI_REV_BASE
   3,   4, 138, 139, 140
*Elset, elset=FASEI_REV_BASE, generate
 513,  516,    1
*Nset, nset=FASEI_REV_ID
   2,   3,   6,  10,  11,  12,  13,  14,  15,  16,  17,  18,  19,  20,  21,  22
  23,  24,  25,  26,  27,  28,  29,  30,  31,  32,  33,  34,  35,  36,  37,  38
  39,  40,  41,  42,  43,  44,  45,  46,  47,  48,  49,  50,  51,  52,  53,  54
  55,  56,  57,  58,  59,  60,  61,  62,  63,  64,  65,  66,  67,  68,  69,  70
  71,  72,  73,  74,  75,  76,  77,  78,  79,  80,  81,  82,  83,  84,  85,  86
  87,  88,  89,  90,  91,  92,  93,  94,  95,  96,  97,  98,  99, 100, 101, 102
 103, 104, 105, 106, 107, 108, 109, 110, 111, 112, 113, 114, 115, 116, 117, 118
 119, 120, 121, 122, 123, 124, 125, 126, 127, 128, 129, 130, 131, 132, 133, 134
 135, 136, 137, 551, 552, 553, 554, 555, 556, 557, 558, 559, 560, 561, 562, 563
 564, 565, 566, 567, 568, 569, 570, 571, 572, 573, 574, 575, 576, 577, 578, 579
 580, 581, 582, 583, 584, 585, 586, 587, 588, 589, 590, 591, 592, 593, 594, 595
 596, 597, 598, 599, 600, 601, 602, 603, 604, 605, 606, 607, 608, 609, 610, 611
 612, 613, 614, 615, 616, 617, 618, 619, 620, 621, 622, 623, 624, 625, 626, 627
 628, 629, 630, 631, 632, 633, 634, 635, 636, 637, 638, 639, 640, 641, 642, 643
 644, 645, 646, 647, 648, 649, 650, 651, 652, 653, 654, 655, 656, 657, 658, 659
 660, 661, 662, 663, 664, 665, 666, 667, 668, 669, 670, 671, 672, 673, 674, 675
 676, 677, 678, 679, 680, 681, 682, 683, 684, 685, 686, 687, 688, 689, 690, 691
 692, 693, 694, 695, 696, 697, 698, 699, 700, 701, 702, 703, 704, 705, 706, 707
 708, 709, 710, 711, 712, 713, 714, 715, 716, 717, 718, 719, 720, 721, 722, 723
 724, 725, 726, 727, 728, 729, 730, 731, 732, 733, 734, 735, 736, 737, 738, 739
** ... 6 like lines cut
*Elset, elset=FASEI_REV_ID
    4,    8,   12,   16,   20,   24,   28,   32,   36,   40,   44,   48,   52,   56,   60,   64
   68,   72,   76,   80,   84,   88,   92,   96,  100,  104,  108,  112,  116,  120,  124,  128
  132,  136,  140,  144,  148,  152,  156,  160,  164,  168,  172,  176,  180,  184,  188,  192
  196,  200,  204,  208,  212,  216,  220,  224,  228,  232,  236,  240,  244,  248,  252,  256
  260,  264,  268,  272,  276,  280,  284,  288,  292,  296,  300,  304,  308,  312,  316,  320
  324,  328,  332,  336,  340,  344,  348,  352,  356,  360,  364,  368,  372,  376,  380,  384
  388,  392,  396,  400,  404,  408,  412,  416,  420,  424,  428,  432,  436,  440,  444,  448
  452,  456,  460,  464,  468,  472,  476,  480,  484,  488,  492,  496,  500,  504,  508,  512
  516,  517,  521,  525,  529,  533,  537,  541,  545,  549,  553,  557,  561,  565,  569,  573
  577,  581,  585,  589,  593,  597,  601,  605,  609,  613,  617,  621,  625,  629,  633,  637
  641,  645,  649,  653,  657,  661,  665,  669,  673,  677,  681,  685,  689,  693,  697,  701
  705,  709,  713,  717,  721,  725,  729,  733,  737,  741,  745,  749,  753,  757,  761,  765
  769,  773,  777,  781,  785,  789,  793,  797,  801,  805,  809,  813,  817,  821,  825,  829
  833,  837,  841,  845,  849,  853,  857,  861,  865,  869,  873,  877,  881,  885,  889,  893
  897,  901,  905,  909,  913,  917,  921,  925,  929,  933,  937,  941,  945,  949,  953,  957
  961,  965,  969,  973,  977,  981,  985,  989,  993,  997, 1001, 1005, 1009, 1013, 1017, 1021
 1025, 1029, 1033, 1037, 1041, 1045, 1049, 1053, 1057, 1061, 1065, 1069, 1073, 1077, 1081, 1085
 1089, 1093, 1097, 1101, 1105, 1109, 1113, 1117, 1121, 1125, 1129, 1133, 1137, 1141, 1145, 1149
 1153, 1157, 1161, 1165, 1169, 1173, 1177, 1181, 1185, 1189, 1193, 1197, 1201, 1205, 1209, 1213
 1217, 1221, 1225, 1229, 1233, 1237, 1241, 1245, 1249, 1253, 1257, 1261, 1265, 1269, 1273, 1277
** ... 6 like lines cut
*Nset, nset=FASEI_REV_OD
   1,   4,   5, 141, 142, 143, 144, 145, 146, 147, 148, 149, 150, 151, 152, 153
 154, 155, 156, 157, 158, 159, 160, 161, 162, 163, 164, 165, 166, 167, 168, 169
 170, 171, 172, 173, 174, 175, 176, 177, 178, 179, 180, 181, 182, 183, 184, 185
 186, 187, 188, 189, 190, 191, 192, 193, 194, 195, 196, 197, 198, 199, 200, 201
 202, 203, 204, 205, 206, 207, 208, 209, 210, 211, 212, 213, 214, 215, 216, 217
 218, 219, 220, 221, 222, 223, 224, 225, 226, 227, 228, 229, 230, 231, 232, 233
 234, 235, 236, 237, 238, 239, 240, 241, 242, 243, 244, 245, 246, 247, 248, 249
 250, 251, 252, 253, 254, 255, 256, 257, 258, 259, 260, 261, 262, 263, 264, 265
 266, 267, 268, 269, 270, 271, 272, 273, 274, 275, 276, 277, 278, 279, 280, 281
 282, 283, 284, 285, 286, 287, 288, 289, 290, 291, 292, 293, 294, 295, 296, 297
 298, 299, 300, 301, 302, 303, 304, 305, 306, 307, 308, 309, 310, 311, 312, 313
 314, 315, 316, 317, 318, 319, 320, 321, 322, 323, 324, 325, 326, 327, 328, 329
 330, 331, 332, 333, 334, 335, 336, 337, 338, 339, 340, 341, 342, 343, 344, 345
 346, 347, 348, 349, 350, 351, 352, 353, 354, 355, 356, 357, 358, 359, 360, 361
 362, 363, 364, 365, 366, 367, 368, 369, 370, 371, 372, 373, 374, 375, 376, 377
 378, 379, 380, 381, 382, 383, 384, 385, 386, 387, 388, 389, 390, 391, 392, 393
 394, 395, 396, 397, 398, 399, 400, 401, 402, 403, 404, 405, 406, 407, 408, 409
 410, 411, 412, 413, 414, 415, 416, 417, 418, 419, 420, 421, 422, 423, 424, 425
 426, 427, 428, 429, 430, 431, 432, 433, 434, 435, 436, 437, 438, 439, 440, 441
 442, 443, 444, 445, 446, 447, 448, 449, 450, 451, 452, 453, 454, 455, 456, 457
** ... 6 like lines cut
*Elset, elset=FASEI_REV_OD
    1,    5,    9,   13,   17,   21,   25,   29,   33,   37,   41,   45,   49,   53,   57,   61
   65,   69,   73,   77,   81,   85,   89,   93,   97,  101,  105,  109,  113,  117,  121,  125
  129,  133,  137,  141,  145,  149,  153,  157,  161,  165,  169,  173,  177,  181,  185,  189
  193,  197,  201,  205,  209,  213,  217,  221,  225,  229,  233,  237,  241,  245,  249,  253
  257,  261,  265,  269,  273,  277,  281,  285,  289,  293,  297,  301,  305,  309,  313,  317
  321,  325,  329,  333,  337,  341,  345,  349,  353,  357,  361,  365,  369,  373,  377,  381
  385,  389,  393,  397,  401,  405,  409,  413,  417,  421,  425,  429,  433,  437,  441,  445
  449,  453,  457,  461,  465,  469,  473,  477,  481,  485,  489,  493,  497,  501,  505,  509
  513,  520,  524,  528,  532,  536,  540,  544,  548,  552,  556,  560,  564,  568,  572,  576
  580,  584,  588,  592,  596,  600,  604,  608,  612,  616,  620,  624,  628,  632,  636,  640
  644,  648,  652,  656,  660,  664,  668,  672,  676,  680,  684,  688,  692,  696,  700,  704
  708,  712,  716,  720,  724,  728,  732,  736,  740,  744,  748,  752,  756,  760,  764,  768
  772,  776,  780,  784,  788,  792,  796,  800,  804,  808,  812,  816,  820,  824,  828,  832
  836,  840,  844,  848,  852,  856,  860,  864,  868,  872,  876,  880,  884,  888,  892,  896
  900,  904,  908,  912,  916,  920,  924,  928,  932,  936,  940,  944,  948,  952,  956,  960
  964,  968,  972,  976,  980,  984,  988,  992,  996, 1000, 1004, 1008, 1012, 1016, 1020, 1024
 1028, 1032, 1036, 1040, 1044, 1048, 1052, 1056, 1060, 1064, 1068, 1072, 1076, 1080, 1084, 1088
 1092, 1096, 1100, 1104, 1108, 1112, 1116, 1120, 1124, 1128, 1132, 1136, 1140, 1144, 1148, 1152
 1156, 1160, 1164, 1168, 1172, 1176, 1180, 1184, 1188, 1192, 1196, 1200, 1204, 1208, 1212, 1216
 1220, 1224, 1228, 1232, 1236, 1240, 1244, 1248, 1252, 1256, 1260, 1264, 1268, 1272, 1276, 1280
** ... 6 like lines cut
*Nset, nset=FASEI_REV_TOP
   5,   6, 548, 549, 550
*Elset, elset=FASEI_REV_TOP, generate
 1633,  1636,     1
*Nset, nset=FASEI_REV_TT
   1,   2,   3,   4,   5,   6,   7,   8,   9, 138, 139, 140, 548, 549, 550
*Elset, elset=FASEI_REV_TT
    1,    2,    3,    4,  513,  514,  515,  516,  517,  518,  519,  520, 1633, 1634, 1635, 1636
** Section: STEEL_Section
*Solid Section, elset=FASEI_REV, material=STEEL
1.,
*End Instance
**  
*Instance, name=ROCK_INST, part=ROCK
*Node
      1,   12.1555748,       -3600.
      2,  0.155575007,       -3600.
      3,  0.155575007,       -4100.
      4,   12.1555748,       -4100.
      5,   12.1555748,       -2500.
      6,  0.155575007,       -2500.
      7,   9.15060329,       -3600.
      8,   6.89736795,       -3600.
      9,   5.20781231,       -3600.
     10,   3.94092321,       -3600.
     11,   2.99096465,       -3600.
     12,   2.27865171,       -3600.
     13,   1.74453425,       -3600.
     14,   1.34403396,       -3600.
     15,   1.04372454,       -3600.
     16,  0.818541765,       -3600.
     17,  0.649691761,       -3600.
     18,  0.523082018,       -3600.
     19,  0.428145498,       -3600.
     20,  0.356958717,       -3600.
** ... 10230 like lines cut
*Element, type=CAX4
   1,    1,    7,  890,  308
   2,    7,    8,  891,  890
   3,    8,    9,  892,  891
   4,    9,   10,  893,  892
   5,   10,   11,  894,  893
   6,   11,   12,  895,  894
   7,   12,   13,  896,  895
   8,   13,   14,  897,  896
   9,   14,   15,  898,  897
  10,   15,   16,  899,  898
  11,   16,   17,  900,  899
  12,   17,   18,  901,  900
  13,   18,   19,  902,  901
  14,   19,   20,  903,  902
  15,   20,   21,  904,  903
  16,   21,   22,  905,  904
  17,   22,   23,  906,  905
  18,   23,   24,  907,  906
  19,   24,   25,  908,  907
  20,   25,   26,  909,  908
** ... 9796 like lines cut
*Node
  10251,           0.,       -2500.,           0.
*Nset, nset=ROCK_INST-RefPt_, internal
10251, 
*Nset, nset=RP_TOP_2500
 10251,
*Nset, nset=ALLROCK, generate
     1,  10250,      1
*Elset, elset=ALLROCK, generate
    1,  9816,     1
*Nset, nset=FASEI_SLAVE, generate
     1,  10250,      1
*Elset, elset=FASEI_SLAVE, generate
    1,  9816,     1
*Nset, nset=L1-I_BASE
  1,  2,  7,  8,  9, 10, 11, 12, 13, 14, 15, 16, 17, 18, 19, 20
 21, 22, 23, 24, 25, 26, 27, 28, 29
*Elset, elset=L1-I_BASE
    1,    2,    3,    4,    5,    6,    7,    8,    9,   10,   11,   12,   13,   14,   15,   16
   17,   18,   19,   20,   21,   22,   23,   24, 3097, 3098, 3099, 3100, 3101, 3102, 3103, 3104
 3105, 3106, 3107, 3108, 3109, 3110, 3111, 3112, 3113, 3114, 3115, 3116, 3117, 3118, 3119, 3120
*Nset, nset=L2-I_BASE
   3,   4, 158, 159, 160, 161, 162, 163, 164, 165, 166, 167, 168, 169, 170, 171
 172, 173, 174, 175, 176, 177, 178, 179, 180
*Elset, elset=L2-I_BASE, generate
 3073,  3096,     1
*Nset, nset=L1-I_ID
   2,   6, 611, 612, 613, 614, 615, 616, 617, 618, 619, 620, 621, 622, 623, 624
 625, 626, 627, 628, 629, 630, 631, 632, 633, 634, 635, 636, 637, 638, 639, 640
 641, 642, 643, 644, 645, 646, 647, 648, 649, 650, 651, 652, 653, 654, 655, 656
 657, 658, 659, 660, 661, 662, 663, 664, 665, 666, 667, 668, 669, 670, 671, 672
 673, 674, 675, 676, 677, 678, 679, 680, 681, 682, 683, 684, 685, 686, 687, 688
 689, 690, 691, 692, 693, 694, 695, 696, 697, 698, 699, 700, 701, 702, 703, 704
 705, 706, 707, 708, 709, 710, 711, 712, 713, 714, 715, 716, 717, 718, 719, 720
 721, 722, 723, 724, 725, 726, 727, 728, 729, 730, 731, 732, 733, 734, 735, 736
 737, 738, 739, 740, 741, 742, 743, 744, 745, 746, 747, 748, 749, 750, 751, 752
 753, 754, 755, 756, 757, 758, 759, 760, 761, 762, 763, 764, 765, 766, 767, 768
 769, 770, 771, 772, 773, 774, 775, 776, 777, 778, 779, 780, 781, 782, 783, 784
 785, 786, 787, 788, 789, 790, 791, 792, 793, 794, 795, 796, 797, 798, 799, 800
 801, 802, 803, 804, 805, 806, 807, 808, 809, 810, 811, 812, 813, 814, 815, 816
 817, 818, 819, 820, 821, 822, 823, 824, 825, 826, 827, 828, 829, 830, 831, 832
 833, 834, 835, 836, 837, 838, 839, 840, 841, 842, 843, 844, 845, 846, 847, 848
 849, 850, 851, 852, 853, 854, 855, 856, 857, 858, 859, 860, 861, 862, 863, 864
 865, 866, 867, 868, 869, 870, 871, 872, 873, 874, 875, 876, 877, 878, 879, 880
 881, 882, 883, 884, 885, 886, 887, 888, 889
*Elset, elset=L1-I_ID, generate
 3097,  9793,    24
*Nset, nset=L2-I_ID
   2,   3,  30,  31,  32,  33,  34,  35,  36,  37,  38,  39,  40,  41,  42,  43
  44,  45,  46,  47,  48,  49,  50,  51,  52,  53,  54,  55,  56,  57,  58,  59
  60,  61,  62,  63,  64,  65,  66,  67,  68,  69,  70,  71,  72,  73,  74,  75
  76,  77,  78,  79,  80,  81,  82,  83,  84,  85,  86,  87,  88,  89,  90,  91
  92,  93,  94,  95,  96,  97,  98,  99, 100, 101, 102, 103, 104, 105, 106, 107
 108, 109, 110, 111, 112, 113, 114, 115, 116, 117, 118, 119, 120, 121, 122, 123
 124, 125, 126, 127, 128, 129, 130, 131, 132, 133, 134, 135, 136, 137, 138, 139
 140, 141, 142, 143, 144, 145, 146, 147, 148, 149, 150, 151, 152, 153, 154, 155
 156, 157
*Elset, elset=L2-I_ID, generate
   24,  3096,    24
*Nset, nset=L1-I_OD
   1,   5, 309, 310, 311, 312, 313, 314, 315, 316, 317, 318, 319, 320, 321, 322
 323, 324, 325, 326, 327, 328, 329, 330, 331, 332, 333, 334, 335, 336, 337, 338
 339, 340, 341, 342, 343, 344, 345, 346, 347, 348, 349, 350, 351, 352, 353, 354
 355, 356, 357, 358, 359, 360, 361, 362, 363, 364, 365, 366, 367, 368, 369, 370
 371, 372, 373, 374, 375, 376, 377, 378, 379, 380, 381, 382, 383, 384, 385, 386
 387, 388, 389, 390, 391, 392, 393, 394, 395, 396, 397, 398, 399, 400, 401, 402
 403, 404, 405, 406, 407, 408, 409, 410, 411, 412, 413, 414, 415, 416, 417, 418
 419, 420, 421, 422, 423, 424, 425, 426, 427, 428, 429, 430, 431, 432, 433, 434
 435, 436, 437, 438, 439, 440, 441, 442, 443, 444, 445, 446, 447, 448, 449, 450
 451, 452, 453, 454, 455, 456, 457, 458, 459, 460, 461, 462, 463, 464, 465, 466
 467, 468, 469, 470, 471, 472, 473, 474, 475, 476, 477, 478, 479, 480, 481, 482
 483, 484, 485, 486, 487, 488, 489, 490, 491, 492, 493, 494, 495, 496, 497, 498
 499, 500, 501, 502, 503, 504, 505, 506, 507, 508, 509, 510, 511, 512, 513, 514
 515, 516, 517, 518, 519, 520, 521, 522, 523, 524, 525, 526, 527, 528, 529, 530
 531, 532, 533, 534, 535, 536, 537, 538, 539, 540, 541, 542, 543, 544, 545, 546
 547, 548, 549, 550, 551, 552, 553, 554, 555, 556, 557, 558, 559, 560, 561, 562
 563, 564, 565, 566, 567, 568, 569, 570, 571, 572, 573, 574, 575, 576, 577, 578
 579, 580, 581, 582, 583, 584, 585, 586, 587
*Elset, elset=L1-I_OD, generate
 3120,  9816,    24
*Nset, nset=L2-I_OD
   1,   4, 181, 182, 183, 184, 185, 186, 187, 188, 189, 190, 191, 192, 193, 194
 195, 196, 197, 198, 199, 200, 201, 202, 203, 204, 205, 206, 207, 208, 209, 210
 211, 212, 213, 214, 215, 216, 217, 218, 219, 220, 221, 222, 223, 224, 225, 226
 227, 228, 229, 230, 231, 232, 233, 234, 235, 236, 237, 238, 239, 240, 241, 242
 243, 244, 245, 246, 247, 248, 249, 250, 251, 252, 253, 254, 255, 256, 257, 258
 259, 260, 261, 262, 263, 264, 265, 266, 267, 268, 269, 270, 271, 272, 273, 274
 275, 276, 277, 278, 279, 280, 281, 282, 283, 284, 285, 286, 287, 288, 289, 290
 291, 292, 293, 294, 295, 296, 297, 298, 299, 300, 301, 302, 303, 304, 305, 306
 307, 308
*Elset, elset=L2-I_OD, generate
    1,  3073,    24
*Nset, nset=L1-I_TOP
   5,   6, 588, 589, 590, 591, 592, 593, 594, 595, 596, 597, 598, 599, 600, 601
 602, 603, 604, 605, 606, 607, 608, 609, 610
*Elset, elset=L1-I_TOP, generate
 9793,  9816,     1
*Nset, nset=L2-I_TOP
  1,  2,  7,  8,  9, 10, 11, 12, 13, 14, 15, 16, 17, 18, 19, 20
 21, 22, 23, 24, 25, 26, 27, 28, 29
*Elset, elset=L2-I_TOP
    1,    2,    3,    4,    5,    6,    7,    8,    9,   10,   11,   12,   13,   14,   15,   16
   17,   18,   19,   20,   21,   22,   23,   24, 3097, 3098, 3099, 3100, 3101, 3102, 3103, 3104
 3105, 3106, 3107, 3108, 3109, 3110, 3111, 3112, 3113, 3114, 3115, 3116, 3117, 3118, 3119, 3120
*Nset, nset=L1-I
     1,     2,     5,     6,     7,     8,     9,    10,    11,    12,    13,    14,    15,    16,    17,    18
    19,    20,    21,    22,    23,    24,    25,    26,    27,    28,    29,   309,   310,   311,   312,   313
   314,   315,   316,   317,   318,   319,   320,   321,   322,   323,   324,   325,   326,   327,   328,   329
   330,   331,   332,   333,   334,   335,   336,   337,   338,   339,   340,   341,   342,   343,   344,   345
   346,   347,   348,   349,   350,   351,   352,   353,   354,   355,   356,   357,   358,   359,   360,   361
   362,   363,   364,   365,   366,   367,   368,   369,   370,   371,   372,   373,   374,   375,   376,   377
   378,   379,   380,   381,   382,   383,   384,   385,   386,   387,   388,   389,   390,   391,   392,   393
   394,   395,   396,   397,   398,   399,   400,   401,   402,   403,   404,   405,   406,   407,   408,   409
   410,   411,   412,   413,   414,   415,   416,   417,   418,   419,   420,   421,   422,   423,   424,   425
   426,   427,   428,   429,   430,   431,   432,   433,   434,   435,   436,   437,   438,   439,   440,   441
   442,   443,   444,   445,   446,   447,   448,   449,   450,   451,   452,   453,   454,   455,   456,   457
   458,   459,   460,   461,   462,   463,   464,   465,   466,   467,   468,   469,   470,   471,   472,   473
   474,   475,   476,   477,   478,   479,   480,   481,   482,   483,   484,   485,   486,   487,   488,   489
   490,   491,   492,   493,   494,   495,   496,   497,   498,   499,   500,   501,   502,   503,   504,   505
   506,   507,   508,   509,   510,   511,   512,   513,   514,   515,   516,   517,   518,   519,   520,   521
   522,   523,   524,   525,   526,   527,   528,   529,   530,   531,   532,   533,   534,   535,   536,   537
   538,   539,   540,   541,   542,   543,   544,   545,   546,   547,   548,   549,   550,   551,   552,   553
   554,   555,   556,   557,   558,   559,   560,   561,   562,   563,   564,   565,   566,   567,   568,   569
   570,   571,   572,   573,   574,   575,   576,   577,   578,   579,   580,   581,   582,   583,   584,   585
   586,   587,   588,   589,   590,   591,   592,   593,   594,   595,   596,   597,   598,   599,   600,   601
** ... 420 like lines cut
*Elset, elset=L1-I, generate
 3097,  9816,     1
*Nset, nset=L2-I
    1,    2,    3,    4,    7,    8,    9,   10,   11,   12,   13,   14,   15,   16,   17,   18
   19,   20,   21,   22,   23,   24,   25,   26,   27,   28,   29,   30,   31,   32,   33,   34
   35,   36,   37,   38,   39,   40,   41,   42,   43,   44,   45,   46,   47,   48,   49,   50
   51,   52,   53,   54,   55,   56,   57,   58,   59,   60,   61,   62,   63,   64,   65,   66
   67,   68,   69,   70,   71,   72,   73,   74,   75,   76,   77,   78,   79,   80,   81,   82
   83,   84,   85,   86,   87,   88,   89,   90,   91,   92,   93,   94,   95,   96,   97,   98
   99,  100,  101,  102,  103,  104,  105,  106,  107,  108,  109,  110,  111,  112,  113,  114
  115,  116,  117,  118,  119,  120,  121,  122,  123,  124,  125,  126,  127,  128,  129,  130
  131,  132,  133,  134,  135,  136,  137,  138,  139,  140,  141,  142,  143,  144,  145,  146
  147,  148,  149,  150,  151,  152,  153,  154,  155,  156,  157,  158,  159,  160,  161,  162
  163,  164,  165,  166,  167,  168,  169,  170,  171,  172,  173,  174,  175,  176,  177,  178
  179,  180,  181,  182,  183,  184,  185,  186,  187,  188,  189,  190,  191,  192,  193,  194
  195,  196,  197,  198,  199,  200,  201,  202,  203,  204,  205,  206,  207,  208,  209,  210
  211,  212,  213,  214,  215,  216,  217,  218,  219,  220,  221,  222,  223,  224,  225,  226
  227,  228,  229,  230,  231,  232,  233,  234,  235,  236,  237,  238,  239,  240,  241,  242
  243,  244,  245,  246,  247,  248,  249,  250,  251,  252,  253,  254,  255,  256,  257,  258
  259,  260,  261,  262,  263,  264,  265,  266,  267,  268,  269,  270,  271,  272,  273,  274
  275,  276,  277,  278,  279,  280,  281,  282,  283,  284,  285,  286,  287,  288,  289,  290
  291,  292,  293,  294,  295,  296,  297,  298,  299,  300,  301,  302,  303,  304,  305,  306
  307,  308,  890,  891,  892,  893,  894,  895,  896,  897,  898,  899,  900,  901,  902,  903
** ... 184 like lines cut
*Elset, elset=L2-I, generate
    1,  3096,     1
** Section: LAYER_02_HALITE_Section
*Solid Section, elset=L2-I, material=LAYER_02_HALITE
1.,
** Section: LAYER_01_SANDSTONE_Section
*Solid Section, elset=L1-I, material=LAYER_01_SANDSTONE
1.,
*End Instance
**  
*Nset, nset=ALL, instance=FLUID_INST, generate
    1,  2050,     1
*Nset, nset=ALL, instance=PIPE_INST, generate
    1,  2050,     1
*Nset, nset=ALL, instance=ROCK_INST, generate
     1,  10250,      1
*Elset, elset=ALL, instance=FLUID_INST, generate
    1,  1636,     1
*Elset, elset=ALL, instance=PIPE_INST, generate
    1,  1636,     1
*Elset, elset=ALL, instance=ROCK_INST, generate
    1,  9816,     1
*Nset, nset=FASEI, instance=FLUID_INST, generate
    1,  2050,     1
*Nset, nset=FASEI, instance=PIPE_INST, generate
    1,  2050,     1
*Elset, elset=FASEI, instance=FLUID_INST, generate
    1,  1636,     1
*Elset, elset=FASEI, instance=PIPE_INST, generate
    1,  1636,     1
*Nset, nset=FASEI_COMPLETED_WELL, instance=PIPE_INST
   2,   3,   6,  10,  11,  12,  13,  14,  15,  16,  17,  18,  19,  20,  21,  22
  23,  24,  25,  26,  27,  28,  29,  30,  31,  32,  33,  34,  35,  36,  37,  38
  39,  40,  41,  42,  43,  44,  45,  46,  47,  48,  49,  50,  51,  52,  53,  54
  55,  56,  57,  58,  59,  60,  61,  62,  63,  64,  65,  66,  67,  68,  69,  70
  71,  72,  73,  74,  75,  76,  77,  78,  79,  80,  81,  82,  83,  84,  85,  86
  87,  88,  89,  90,  91,  92,  93,  94,  95,  96,  97,  98,  99, 100, 101, 102
 103, 104, 105, 106, 107, 108, 109, 110, 111, 112, 113, 114, 115, 116, 117, 118
 119, 120, 121, 122, 123, 124, 125, 126, 127, 128, 129, 130, 131, 132, 133, 134
 135, 136, 137, 551, 552, 553, 554, 555, 556, 557, 558, 559, 560, 561, 562, 563
 564, 565, 566, 567, 568, 569, 570, 571, 572, 573, 574, 575, 576, 577, 578, 579
 580, 581, 582, 583, 584, 585, 586, 587, 588, 589, 590, 591, 592, 593, 594, 595
 596, 597, 598, 599, 600, 601, 602, 603, 604, 605, 606, 607, 608, 609, 610, 611
 612, 613, 614, 615, 616, 617, 618, 619, 620, 621, 622, 623, 624, 625, 626, 627
 628, 629, 630, 631, 632, 633, 634, 635, 636, 637, 638, 639, 640, 641, 642, 643
 644, 645, 646, 647, 648, 649, 650, 651, 652, 653, 654, 655, 656, 657, 658, 659
 660, 661, 662, 663, 664, 665, 666, 667, 668, 669, 670, 671, 672, 673, 674, 675
 676, 677, 678, 679, 680, 681, 682, 683, 684, 685, 686, 687, 688, 689, 690, 691
 692, 693, 694, 695, 696, 697, 698, 699, 700, 701, 702, 703, 704, 705, 706, 707
 708, 709, 710, 711, 712, 713, 714, 715, 716, 717, 718, 719, 720, 721, 722, 723
 724, 725, 726, 727, 728, 729, 730, 731, 732, 733, 734, 735, 736, 737, 738, 739
** ... 6 like lines cut
*Elset, elset=FASEI_COMPLETED_WELL, instance=PIPE_INST
    4,    8,   12,   16,   20,   24,   28,   32,   36,   40,   44,   48,   52,   56,   60,   64
   68,   72,   76,   80,   84,   88,   92,   96,  100,  104,  108,  112,  116,  120,  124,  128
  132,  136,  140,  144,  148,  152,  156,  160,  164,  168,  172,  176,  180,  184,  188,  192
  196,  200,  204,  208,  212,  216,  220,  224,  228,  232,  236,  240,  244,  248,  252,  256
  260,  264,  268,  272,  276,  280,  284,  288,  292,  296,  300,  304,  308,  312,  316,  320
  324,  328,  332,  336,  340,  344,  348,  352,  356,  360,  364,  368,  372,  376,  380,  384
  388,  392,  396,  400,  404,  408,  412,  416,  420,  424,  428,  432,  436,  440,  444,  448
  452,  456,  460,  464,  468,  472,  476,  480,  484,  488,  492,  496,  500,  504,  508,  512
  516,  517,  521,  525,  529,  533,  537,  541,  545,  549,  553,  557,  561,  565,  569,  573
  577,  581,  585,  589,  593,  597,  601,  605,  609,  613,  617,  621,  625,  629,  633,  637
  641,  645,  649,  653,  657,  661,  665,  669,  673,  677,  681,  685,  689,  693,  697,  701
  705,  709,  713,  717,  721,  725,  729,  733,  737,  741,  745,  749,  753,  757,  761,  765
  769,  773,  777,  781,  785,  789,  793,  797,  801,  805,  809,  813,  817,  821,  825,  829
  833,  837,  841,  845,  849,  853,  857,  861,  865,  869,  873,  877,  881,  885,  889,  893
  897,  901,  905,  909,  913,  917,  921,  925,  929,  933,  937,  941,  945,  949,  953,  957
  961,  965,  969,  973,  977,  981,  985,  989,  993,  997, 1001, 1005, 1009, 1013, 1017, 1021
 1025, 1029, 1033, 1037, 1041, 1045, 1049, 1053, 1057, 1061, 1065, 1069, 1073, 1077, 1081, 1085
 1089, 1093, 1097, 1101, 1105, 1109, 1113, 1117, 1121, 1125, 1129, 1133, 1137, 1141, 1145, 1149
 1153, 1157, 1161, 1165, 1169, 1173, 1177, 1181, 1185, 1189, 1193, 1197, 1201, 1205, 1209, 1213
 1217, 1221, 1225, 1229, 1233, 1237, 1241, 1245, 1249, 1253, 1257, 1261, 1265, 1269, 1273, 1277
** ... 6 like lines cut
*Nset, nset=FASEI_OPEN_WELL, instance=ROCK_INST
   2,   3,   6,  30,  31,  32,  33,  34,  35,  36,  37,  38,  39,  40,  41,  42
  43,  44,  45,  46,  47,  48,  49,  50,  51,  52,  53,  54,  55,  56,  57,  58
  59,  60,  61,  62,  63,  64,  65,  66,  67,  68,  69,  70,  71,  72,  73,  74
  75,  76,  77,  78,  79,  80,  81,  82,  83,  84,  85,  86,  87,  88,  89,  90
  91,  92,  93,  94,  95,  96,  97,  98,  99, 100, 101, 102, 103, 104, 105, 106
 107, 108, 109, 110, 111, 112, 113, 114, 115, 116, 117, 118, 119, 120, 121, 122
 123, 124, 125, 126, 127, 128, 129, 130, 131, 132, 133, 134, 135, 136, 137, 138
 139, 140, 141, 142, 143, 144, 145, 146, 147, 148, 149, 150, 151, 152, 153, 154
 155, 156, 157, 611, 612, 613, 614, 615, 616, 617, 618, 619, 620, 621, 622, 623
 624, 625, 626, 627, 628, 629, 630, 631, 632, 633, 634, 635, 636, 637, 638, 639
 640, 641, 642, 643, 644, 645, 646, 647, 648, 649, 650, 651, 652, 653, 654, 655
 656, 657, 658, 659, 660, 661, 662, 663, 664, 665, 666, 667, 668, 669, 670, 671
 672, 673, 674, 675, 676, 677, 678, 679, 680, 681, 682, 683, 684, 685, 686, 687
 688, 689, 690, 691, 692, 693, 694, 695, 696, 697, 698, 699, 700, 701, 702, 703
 704, 705, 706, 707, 708, 709, 710, 711, 712, 713, 714, 715, 716, 717, 718, 719
 720, 721, 722, 723, 724, 725, 726, 727, 728, 729, 730, 731, 732, 733, 734, 735
 736, 737, 738, 739, 740, 741, 742, 743, 744, 745, 746, 747, 748, 749, 750, 751
 752, 753, 754, 755, 756, 757, 758, 759, 760, 761, 762, 763, 764, 765, 766, 767
 768, 769, 770, 771, 772, 773, 774, 775, 776, 777, 778, 779, 780, 781, 782, 783
 784, 785, 786, 787, 788, 789, 790, 791, 792, 793, 794, 795, 796, 797, 798, 799
** ... 6 like lines cut
*Elset, elset=FASEI_OPEN_WELL, instance=ROCK_INST
   24,   48,   72,   96,  120,  144,  168,  192,  216,  240,  264,  288,  312,  336,  360,  384
  408,  432,  456,  480,  504,  528,  552,  576,  600,  624,  648,  672,  696,  720,  744,  768
  792,  816,  840,  864,  888,  912,  936,  960,  984, 1008, 1032, 1056, 1080, 1104, 1128, 1152
 1176, 1200, 1224, 1248, 1272, 1296, 1320, 1344, 1368, 1392, 1416, 1440, 1464, 1488, 1512, 1536
 1560, 1584, 1608, 1632, 1656, 1680, 1704, 1728, 1752, 1776, 1800, 1824, 1848, 1872, 1896, 1920
 1944, 1968, 1992, 2016, 2040, 2064, 2088, 2112, 2136, 2160, 2184, 2208, 2232, 2256, 2280, 2304
 2328, 2352, 2376, 2400, 2424, 2448, 2472, 2496, 2520, 2544, 2568, 2592, 2616, 2640, 2664, 2688
 2712, 2736, 2760, 2784, 2808, 2832, 2856, 2880, 2904, 2928, 2952, 2976, 3000, 3024, 3048, 3072
 3096, 3097, 3121, 3145, 3169, 3193, 3217, 3241, 3265, 3289, 3313, 3337, 3361, 3385, 3409, 3433
 3457, 3481, 3505, 3529, 3553, 3577, 3601, 3625, 3649, 3673, 3697, 3721, 3745, 3769, 3793, 3817
 3841, 3865, 3889, 3913, 3937, 3961, 3985, 4009, 4033, 4057, 4081, 4105, 4129, 4153, 4177, 4201
 4225, 4249, 4273, 4297, 4321, 4345, 4369, 4393, 4417, 4441, 4465, 4489, 4513, 4537, 4561, 4585
 4609, 4633, 4657, 4681, 4705, 4729, 4753, 4777, 4801, 4825, 4849, 4873, 4897, 4921, 4945, 4969
 4993, 5017, 5041, 5065, 5089, 5113, 5137, 5161, 5185, 5209, 5233, 5257, 5281, 5305, 5329, 5353
 5377, 5401, 5425, 5449, 5473, 5497, 5521, 5545, 5569, 5593, 5617, 5641, 5665, 5689, 5713, 5737
 5761, 5785, 5809, 5833, 5857, 5881, 5905, 5929, 5953, 5977, 6001, 6025, 6049, 6073, 6097, 6121
 6145, 6169, 6193, 6217, 6241, 6265, 6289, 6313, 6337, 6361, 6385, 6409, 6433, 6457, 6481, 6505
 6529, 6553, 6577, 6601, 6625, 6649, 6673, 6697, 6721, 6745, 6769, 6793, 6817, 6841, 6865, 6889
 6913, 6937, 6961, 6985, 7009, 7033, 7057, 7081, 7105, 7129, 7153, 7177, 7201, 7225, 7249, 7273
 7297, 7321, 7345, 7369, 7393, 7417, 7441, 7465, 7489, 7513, 7537, 7561, 7585, 7609, 7633, 7657
** ... 6 like lines cut
*Nset, nset=FASEI_WELL, instance=ROCK_INST
   2,   3,   6,  30,  31,  32,  33,  34,  35,  36,  37,  38,  39,  40,  41,  42
  43,  44,  45,  46,  47,  48,  49,  50,  51,  52,  53,  54,  55,  56,  57,  58
  59,  60,  61,  62,  63,  64,  65,  66,  67,  68,  69,  70,  71,  72,  73,  74
  75,  76,  77,  78,  79,  80,  81,  82,  83,  84,  85,  86,  87,  88,  89,  90
  91,  92,  93,  94,  95,  96,  97,  98,  99, 100, 101, 102, 103, 104, 105, 106
 107, 108, 109, 110, 111, 112, 113, 114, 115, 116, 117, 118, 119, 120, 121, 122
 123, 124, 125, 126, 127, 128, 129, 130, 131, 132, 133, 134, 135, 136, 137, 138
 139, 140, 141, 142, 143, 144, 145, 146, 147, 148, 149, 150, 151, 152, 153, 154
 155, 156, 157, 611, 612, 613, 614, 615, 616, 617, 618, 619, 620, 621, 622, 623
 624, 625, 626, 627, 628, 629, 630, 631, 632, 633, 634, 635, 636, 637, 638, 639
 640, 641, 642, 643, 644, 645, 646, 647, 648, 649, 650, 651, 652, 653, 654, 655
 656, 657, 658, 659, 660, 661, 662, 663, 664, 665, 666, 667, 668, 669, 670, 671
 672, 673, 674, 675, 676, 677, 678, 679, 680, 681, 682, 683, 684, 685, 686, 687
 688, 689, 690, 691, 692, 693, 694, 695, 696, 697, 698, 699, 700, 701, 702, 703
 704, 705, 706, 707, 708, 709, 710, 711, 712, 713, 714, 715, 716, 717, 718, 719
 720, 721, 722, 723, 724, 725, 726, 727, 728, 729, 730, 731, 732, 733, 734, 735
 736, 737, 738, 739, 740, 741, 742, 743, 744, 745, 746, 747, 748, 749, 750, 751
 752, 753, 754, 755, 756, 757, 758, 759, 760, 761, 762, 763, 764, 765, 766, 767
 768, 769, 770, 771, 772, 773, 774, 775, 776, 777, 778, 779, 780, 781, 782, 783
 784, 785, 786, 787, 788, 789, 790, 791, 792, 793, 794, 795, 796, 797, 798, 799
** ... 6 like lines cut
*Elset, elset=FASEI_WELL, instance=ROCK_INST
   24,   48,   72,   96,  120,  144,  168,  192,  216,  240,  264,  288,  312,  336,  360,  384
  408,  432,  456,  480,  504,  528,  552,  576,  600,  624,  648,  672,  696,  720,  744,  768
  792,  816,  840,  864,  888,  912,  936,  960,  984, 1008, 1032, 1056, 1080, 1104, 1128, 1152
 1176, 1200, 1224, 1248, 1272, 1296, 1320, 1344, 1368, 1392, 1416, 1440, 1464, 1488, 1512, 1536
 1560, 1584, 1608, 1632, 1656, 1680, 1704, 1728, 1752, 1776, 1800, 1824, 1848, 1872, 1896, 1920
 1944, 1968, 1992, 2016, 2040, 2064, 2088, 2112, 2136, 2160, 2184, 2208, 2232, 2256, 2280, 2304
 2328, 2352, 2376, 2400, 2424, 2448, 2472, 2496, 2520, 2544, 2568, 2592, 2616, 2640, 2664, 2688
 2712, 2736, 2760, 2784, 2808, 2832, 2856, 2880, 2904, 2928, 2952, 2976, 3000, 3024, 3048, 3072
 3096, 3097, 3121, 3145, 3169, 3193, 3217, 3241, 3265, 3289, 3313, 3337, 3361, 3385, 3409, 3433
 3457, 3481, 3505, 3529, 3553, 3577, 3601, 3625, 3649, 3673, 3697, 3721, 3745, 3769, 3793, 3817
 3841, 3865, 3889, 3913, 3937, 3961, 3985, 4009, 4033, 4057, 4081, 4105, 4129, 4153, 4177, 4201
 4225, 4249, 4273, 4297, 4321, 4345, 4369, 4393, 4417, 4441, 4465, 4489, 4513, 4537, 4561, 4585
 4609, 4633, 4657, 4681, 4705, 4729, 4753, 4777, 4801, 4825, 4849, 4873, 4897, 4921, 4945, 4969
 4993, 5017, 5041, 5065, 5089, 5113, 5137, 5161, 5185, 5209, 5233, 5257, 5281, 5305, 5329, 5353
 5377, 5401, 5425, 5449, 5473, 5497, 5521, 5545, 5569, 5593, 5617, 5641, 5665, 5689, 5713, 5737
 5761, 5785, 5809, 5833, 5857, 5881, 5905, 5929, 5953, 5977, 6001, 6025, 6049, 6073, 6097, 6121
 6145, 6169, 6193, 6217, 6241, 6265, 6289, 6313, 6337, 6361, 6385, 6409, 6433, 6457, 6481, 6505
 6529, 6553, 6577, 6601, 6625, 6649, 6673, 6697, 6721, 6745, 6769, 6793, 6817, 6841, 6865, 6889
 6913, 6937, 6961, 6985, 7009, 7033, 7057, 7081, 7105, 7129, 7153, 7177, 7201, 7225, 7249, 7273
 7297, 7321, 7345, 7369, 7393, 7417, 7441, 7465, 7489, 7513, 7537, 7561, 7585, 7609, 7633, 7657
** ... 6 like lines cut
*Nset, nset=MESH_TT_ANNULARS, instance=FLUID_INST
   1,   2,   3,   4,   5,   6,   7,   8,   9, 138, 139, 140, 548, 549, 550
*Elset, elset=MESH_TT_ANNULARS, instance=FLUID_INST
    1,    2,    3,    4,  513,  514,  515,  516,  517,  518,  519,  520, 1633, 1634, 1635, 1636
*Nset, nset=MESH_TT_PIPES, instance=PIPE_INST
   1,   2,   3,   4,   5,   6,   7,   8,   9, 138, 139, 140, 548, 549, 550
*Elset, elset=MESH_TT_PIPES, instance=PIPE_INST
    1,    2,    3,    4,  513,  514,  515,  516,  517,  518,  519,  520, 1633, 1634, 1635, 1636
*Nset, nset=MESH_TT_ROCK, instance=ROCK_INST
   1,   2,   3,   4,   5,   6,   7,   8,   9,  10,  11,  12,  13,  14,  15,  16
  17,  18,  19,  20,  21,  22,  23,  24,  25,  26,  27,  28,  29, 158, 159, 160
 161, 162, 163, 164, 165, 166, 167, 168, 169, 170, 171, 172, 173, 174, 175, 176
 177, 178, 179, 180, 588, 589, 590, 591, 592, 593, 594, 595, 596, 597, 598, 599
 600, 601, 602, 603, 604, 605, 606, 607, 608, 609, 610
*Elset, elset=MESH_TT_ROCK, instance=ROCK_INST
    1,    2,    3,    4,    5,    6,    7,    8,    9,   10,   11,   12,   13,   14,   15,   16
   17,   18,   19,   20,   21,   22,   23,   24, 3073, 3074, 3075, 3076, 3077, 3078, 3079, 3080
 3081, 3082, 3083, 3084, 3085, 3086, 3087, 3088, 3089, 3090, 3091, 3092, 3093, 3094, 3095, 3096
 3097, 3098, 3099, 3100, 3101, 3102, 3103, 3104, 3105, 3106, 3107, 3108, 3109, 3110, 3111, 3112
 3113, 3114, 3115, 3116, 3117, 3118, 3119, 3120, 9793, 9794, 9795, 9796, 9797, 9798, 9799, 9800
 9801, 9802, 9803, 9804, 9805, 9806, 9807, 9808, 9809, 9810, 9811, 9812, 9813, 9814, 9815, 9816
*Nset, nset=MESH_VERTICAL, instance=FLUID_INST
   1,   2,   3,   4,   5,   6,  10,  11,  12,  13,  14,  15,  16,  17,  18,  19
  20,  21,  22,  23,  24,  25,  26,  27,  28,  29,  30,  31,  32,  33,  34,  35
  36,  37,  38,  39,  40,  41,  42,  43,  44,  45,  46,  47,  48,  49,  50,  51
  52,  53,  54,  55,  56,  57,  58,  59,  60,  61,  62,  63,  64,  65,  66,  67
  68,  69,  70,  71,  72,  73,  74,  75,  76,  77,  78,  79,  80,  81,  82,  83
  84,  85,  86,  87,  88,  89,  90,  91,  92,  93,  94,  95,  96,  97,  98,  99
 100, 101, 102, 103, 104, 105, 106, 107, 108, 109, 110, 111, 112, 113, 114, 115
 116, 117, 118, 119, 120, 121, 122, 123, 124, 125, 126, 127, 128, 129, 130, 131
 132, 133, 134, 135, 136, 137, 141, 142, 143, 144, 145, 146, 147, 148, 149, 150
 151, 152, 153, 154, 155, 156, 157, 158, 159, 160, 161, 162, 163, 164, 165, 166
 167, 168, 169, 170, 171, 172, 173, 174, 175, 176, 177, 178, 179, 180, 181, 182
 183, 184, 185, 186, 187, 188, 189, 190, 191, 192, 193, 194, 195, 196, 197, 198
 199, 200, 201, 202, 203, 204, 205, 206, 207, 208, 209, 210, 211, 212, 213, 214
 215, 216, 217, 218, 219, 220, 221, 222, 223, 224, 225, 226, 227, 228, 229, 230
 231, 232, 233, 234, 235, 236, 237, 238, 239, 240, 241, 242, 243, 244, 245, 246
 247, 248, 249, 250, 251, 252, 253, 254, 255, 256, 257, 258, 259, 260, 261, 262
 263, 264, 265, 266, 267, 268, 269, 270, 271, 272, 273, 274, 275, 276, 277, 278
 279, 280, 281, 282, 283, 284, 285, 286, 287, 288, 289, 290, 291, 292, 293, 294
 295, 296, 297, 298, 299, 300, 301, 302, 303, 304, 305, 306, 307, 308, 309, 310
 311, 312, 313, 314, 315, 316, 317, 318, 319, 320, 321, 322, 323, 324, 325, 326
** ... 32 like lines cut
*Nset, nset=MESH_VERTICAL, instance=PIPE_INST
   1,   2,   3,   4,   5,   6,  10,  11,  12,  13,  14,  15,  16,  17,  18,  19
  20,  21,  22,  23,  24,  25,  26,  27,  28,  29,  30,  31,  32,  33,  34,  35
  36,  37,  38,  39,  40,  41,  42,  43,  44,  45,  46,  47,  48,  49,  50,  51
  52,  53,  54,  55,  56,  57,  58,  59,  60,  61,  62,  63,  64,  65,  66,  67
  68,  69,  70,  71,  72,  73,  74,  75,  76,  77,  78,  79,  80,  81,  82,  83
  84,  85,  86,  87,  88,  89,  90,  91,  92,  93,  94,  95,  96,  97,  98,  99
 100, 101, 102, 103, 104, 105, 106, 107, 108, 109, 110, 111, 112, 113, 114, 115
 116, 117, 118, 119, 120, 121, 122, 123, 124, 125, 126, 127, 128, 129, 130, 131
 132, 133, 134, 135, 136, 137, 141, 142, 143, 144, 145, 146, 147, 148, 149, 150
 151, 152, 153, 154, 155, 156, 157, 158, 159, 160, 161, 162, 163, 164, 165, 166
 167, 168, 169, 170, 171, 172, 173, 174, 175, 176, 177, 178, 179, 180, 181, 182
 183, 184, 185, 186, 187, 188, 189, 190, 191, 192, 193, 194, 195, 196, 197, 198
 199, 200, 201, 202, 203, 204, 205, 206, 207, 208, 209, 210, 211, 212, 213, 214
 215, 216, 217, 218, 219, 220, 221, 222, 223, 224, 225, 226, 227, 228, 229, 230
 231, 232, 233, 234, 235, 236, 237, 238, 239, 240, 241, 242, 243, 244, 245, 246
 247, 248, 249, 250, 251, 252, 253, 254, 255, 256, 257, 258, 259, 260, 261, 262
 263, 264, 265, 266, 267, 268, 269, 270, 271, 272, 273, 274, 275, 276, 277, 278
 279, 280, 281, 282, 283, 284, 285, 286, 287, 288, 289, 290, 291, 292, 293, 294
 295, 296, 297, 298, 299, 300, 301, 302, 303, 304, 305, 306, 307, 308, 309, 310
 311, 312, 313, 314, 315, 316, 317, 318, 319, 320, 321, 322, 323, 324, 325, 326
** ... 32 like lines cut
*Nset, nset=MESH_VERTICAL, instance=ROCK_INST
   1,   2,   3,   4,   5,   6,  30,  31,  32,  33,  34,  35,  36,  37,  38,  39
  40,  41,  42,  43,  44,  45,  46,  47,  48,  49,  50,  51,  52,  53,  54,  55
  56,  57,  58,  59,  60,  61,  62,  63,  64,  65,  66,  67,  68,  69,  70,  71
  72,  73,  74,  75,  76,  77,  78,  79,  80,  81,  82,  83,  84,  85,  86,  87
  88,  89,  90,  91,  92,  93,  94,  95,  96,  97,  98,  99, 100, 101, 102, 103
 104, 105, 106, 107, 108, 109, 110, 111, 112, 113, 114, 115, 116, 117, 118, 119
 120, 121, 122, 123, 124, 125, 126, 127, 128, 129, 130, 131, 132, 133, 134, 135
 136, 137, 138, 139, 140, 141, 142, 143, 144, 145, 146, 147, 148, 149, 150, 151
 152, 153, 154, 155, 156, 157, 181, 182, 183, 184, 185, 186, 187, 188, 189, 190
 191, 192, 193, 194, 195, 196, 197, 198, 199, 200, 201, 202, 203, 204, 205, 206
 207, 208, 209, 210, 211, 212, 213, 214, 215, 216, 217, 218, 219, 220, 221, 222
 223, 224, 225, 226, 227, 228, 229, 230, 231, 232, 233, 234, 235, 236, 237, 238
 239, 240, 241, 242, 243, 244, 245, 246, 247, 248, 249, 250, 251, 252, 253, 254
 255, 256, 257, 258, 259, 260, 261, 262, 263, 264, 265, 266, 267, 268, 269, 270
 271, 272, 273, 274, 275, 276, 277, 278, 279, 280, 281, 282, 283, 284, 285, 286
 287, 288, 289, 290, 291, 292, 293, 294, 295, 296, 297, 298, 299, 300, 301, 302
 303, 304, 305, 306, 307, 308, 309, 310, 311, 312, 313, 314, 315, 316, 317, 318
 319, 320, 321, 322, 323, 324, 325, 326, 327, 328, 329, 330, 331, 332, 333, 334
 335, 336, 337, 338, 339, 340, 341, 342, 343, 344, 345, 346, 347, 348, 349, 350
 351, 352, 353, 354, 355, 356, 357, 358, 359, 360, 361, 362, 363, 364, 365, 366
** ... 32 like lines cut
*Elset, elset=MESH_VERTICAL, instance=FLUID_INST
    1,    4,    5,    8,    9,   12,   13,   16,   17,   20,   21,   24,   25,   28,   29,   32
   33,   36,   37,   40,   41,   44,   45,   48,   49,   52,   53,   56,   57,   60,   61,   64
   65,   68,   69,   72,   73,   76,   77,   80,   81,   84,   85,   88,   89,   92,   93,   96
   97,  100,  101,  104,  105,  108,  109,  112,  113,  116,  117,  120,  121,  124,  125,  128
  129,  132,  133,  136,  137,  140,  141,  144,  145,  148,  149,  152,  153,  156,  157,  160
  161,  164,  165,  168,  169,  172,  173,  176,  177,  180,  181,  184,  185,  188,  189,  192
  193,  196,  197,  200,  201,  204,  205,  208,  209,  212,  213,  216,  217,  220,  221,  224
  225,  228,  229,  232,  233,  236,  237,  240,  241,  244,  245,  248,  249,  252,  253,  256
  257,  260,  261,  264,  265,  268,  269,  272,  273,  276,  277,  280,  281,  284,  285,  288
  289,  292,  293,  296,  297,  300,  301,  304,  305,  308,  309,  312,  313,  316,  317,  320
  321,  324,  325,  328,  329,  332,  333,  336,  337,  340,  341,  344,  345,  348,  349,  352
  353,  356,  357,  360,  361,  364,  365,  368,  369,  372,  373,  376,  377,  380,  381,  384
  385,  388,  389,  392,  393,  396,  397,  400,  401,  404,  405,  408,  409,  412,  413,  416
  417,  420,  421,  424,  425,  428,  429,  432,  433,  436,  437,  440,  441,  444,  445,  448
  449,  452,  453,  456,  457,  460,  461,  464,  465,  468,  469,  472,  473,  476,  477,  480
  481,  484,  485,  488,  489,  492,  493,  496,  497,  500,  501,  504,  505,  508,  509,  512
  513,  516,  517,  520,  521,  524,  525,  528,  529,  532,  533,  536,  537,  540,  541,  544
  545,  548,  549,  552,  553,  556,  557,  560,  561,  564,  565,  568,  569,  572,  573,  576
  577,  580,  581,  584,  585,  588,  589,  592,  593,  596,  597,  600,  601,  604,  605,  608
  609,  612,  613,  616,  617,  620,  621,  624,  625,  628,  629,  632,  633,  636,  637,  640
** ... 32 like lines cut
*Elset, elset=MESH_VERTICAL, instance=PIPE_INST
    1,    4,    5,    8,    9,   12,   13,   16,   17,   20,   21,   24,   25,   28,   29,   32
   33,   36,   37,   40,   41,   44,   45,   48,   49,   52,   53,   56,   57,   60,   61,   64
   65,   68,   69,   72,   73,   76,   77,   80,   81,   84,   85,   88,   89,   92,   93,   96
   97,  100,  101,  104,  105,  108,  109,  112,  113,  116,  117,  120,  121,  124,  125,  128
  129,  132,  133,  136,  137,  140,  141,  144,  145,  148,  149,  152,  153,  156,  157,  160
  161,  164,  165,  168,  169,  172,  173,  176,  177,  180,  181,  184,  185,  188,  189,  192
  193,  196,  197,  200,  201,  204,  205,  208,  209,  212,  213,  216,  217,  220,  221,  224
  225,  228,  229,  232,  233,  236,  237,  240,  241,  244,  245,  248,  249,  252,  253,  256
  257,  260,  261,  264,  265,  268,  269,  272,  273,  276,  277,  280,  281,  284,  285,  288
  289,  292,  293,  296,  297,  300,  301,  304,  305,  308,  309,  312,  313,  316,  317,  320
  321,  324,  325,  328,  329,  332,  333,  336,  337,  340,  341,  344,  345,  348,  349,  352
  353,  356,  357,  360,  361,  364,  365,  368,  369,  372,  373,  376,  377,  380,  381,  384
  385,  388,  389,  392,  393,  396,  397,  400,  401,  404,  405,  408,  409,  412,  413,  416
  417,  420,  421,  424,  425,  428,  429,  432,  433,  436,  437,  440,  441,  444,  445,  448
  449,  452,  453,  456,  457,  460,  461,  464,  465,  468,  469,  472,  473,  476,  477,  480
  481,  484,  485,  488,  489,  492,  493,  496,  497,  500,  501,  504,  505,  508,  509,  512
  513,  516,  517,  520,  521,  524,  525,  528,  529,  532,  533,  536,  537,  540,  541,  544
  545,  548,  549,  552,  553,  556,  557,  560,  561,  564,  565,  568,  569,  572,  573,  576
  577,  580,  581,  584,  585,  588,  589,  592,  593,  596,  597,  600,  601,  604,  605,  608
  609,  612,  613,  616,  617,  620,  621,  624,  625,  628,  629,  632,  633,  636,  637,  640
** ... 32 like lines cut
*Elset, elset=MESH_VERTICAL, instance=ROCK_INST
    1,   24,   25,   48,   49,   72,   73,   96,   97,  120,  121,  144,  145,  168,  169,  192
  193,  216,  217,  240,  241,  264,  265,  288,  289,  312,  313,  336,  337,  360,  361,  384
  385,  408,  409,  432,  433,  456,  457,  480,  481,  504,  505,  528,  529,  552,  553,  576
  577,  600,  601,  624,  625,  648,  649,  672,  673,  696,  697,  720,  721,  744,  745,  768
  769,  792,  793,  816,  817,  840,  841,  864,  865,  888,  889,  912,  913,  936,  937,  960
  961,  984,  985, 1008, 1009, 1032, 1033, 1056, 1057, 1080, 1081, 1104, 1105, 1128, 1129, 1152
 1153, 1176, 1177, 1200, 1201, 1224, 1225, 1248, 1249, 1272, 1273, 1296, 1297, 1320, 1321, 1344
 1345, 1368, 1369, 1392, 1393, 1416, 1417, 1440, 1441, 1464, 1465, 1488, 1489, 1512, 1513, 1536
 1537, 1560, 1561, 1584, 1585, 1608, 1609, 1632, 1633, 1656, 1657, 1680, 1681, 1704, 1705, 1728
 1729, 1752, 1753, 1776, 1777, 1800, 1801, 1824, 1825, 1848, 1849, 1872, 1873, 1896, 1897, 1920
 1921, 1944, 1945, 1968, 1969, 1992, 1993, 2016, 2017, 2040, 2041, 2064, 2065, 2088, 2089, 2112
 2113, 2136, 2137, 2160, 2161, 2184, 2185, 2208, 2209, 2232, 2233, 2256, 2257, 2280, 2281, 2304
 2305, 2328, 2329, 2352, 2353, 2376, 2377, 2400, 2401, 2424, 2425, 2448, 2449, 2472, 2473, 2496
 2497, 2520, 2521, 2544, 2545, 2568, 2569, 2592, 2593, 2616, 2617, 2640, 2641, 2664, 2665, 2688
 2689, 2712, 2713, 2736, 2737, 2760, 2761, 2784, 2785, 2808, 2809, 2832, 2833, 2856, 2857, 2880
 2881, 2904, 2905, 2928, 2929, 2952, 2953, 2976, 2977, 3000, 3001, 3024, 3025, 3048, 3049, 3072
 3073, 3096, 3097, 3120, 3121, 3144, 3145, 3168, 3169, 3192, 3193, 3216, 3217, 3240, 3241, 3264
 3265, 3288, 3289, 3312, 3313, 3336, 3337, 3360, 3361, 3384, 3385, 3408, 3409, 3432, 3433, 3456
 3457, 3480, 3481, 3504, 3505, 3528, 3529, 3552, 3553, 3576, 3577, 3600, 3601, 3624, 3625, 3648
 3649, 3672, 3673, 3696, 3697, 3720, 3721, 3744, 3745, 3768, 3769, 3792, 3793, 3816, 3817, 3840
** ... 32 like lines cut
*Nset, nset=ROCK_BC, instance=ROCK_INST
   1,   4,   5, 181, 182, 183, 184, 185, 186, 187, 188, 189, 190, 191, 192, 193
 194, 195, 196, 197, 198, 199, 200, 201, 202, 203, 204, 205, 206, 207, 208, 209
 210, 211, 212, 213, 214, 215, 216, 217, 218, 219, 220, 221, 222, 223, 224, 225
 226, 227, 228, 229, 230, 231, 232, 233, 234, 235, 236, 237, 238, 239, 240, 241
 242, 243, 244, 245, 246, 247, 248, 249, 250, 251, 252, 253, 254, 255, 256, 257
 258, 259, 260, 261, 262, 263, 264, 265, 266, 267, 268, 269, 270, 271, 272, 273
 274, 275, 276, 277, 278, 279, 280, 281, 282, 283, 284, 285, 286, 287, 288, 289
 290, 291, 292, 293, 294, 295, 296, 297, 298, 299, 300, 301, 302, 303, 304, 305
 306, 307, 308, 309, 310, 311, 312, 313, 314, 315, 316, 317, 318, 319, 320, 321
 322, 323, 324, 325, 326, 327, 328, 329, 330, 331, 332, 333, 334, 335, 336, 337
 338, 339, 340, 341, 342, 343, 344, 345, 346, 347, 348, 349, 350, 351, 352, 353
 354, 355, 356, 357, 358, 359, 360, 361, 362, 363, 364, 365, 366, 367, 368, 369
 370, 371, 372, 373, 374, 375, 376, 377, 378, 379, 380, 381, 382, 383, 384, 385
 386, 387, 388, 389, 390, 391, 392, 393, 394, 395, 396, 397, 398, 399, 400, 401
 402, 403, 404, 405, 406, 407, 408, 409, 410, 411, 412, 413, 414, 415, 416, 417
 418, 419, 420, 421, 422, 423, 424, 425, 426, 427, 428, 429, 430, 431, 432, 433
 434, 435, 436, 437, 438, 439, 440, 441, 442, 443, 444, 445, 446, 447, 448, 449
 450, 451, 452, 453, 454, 455, 456, 457, 458, 459, 460, 461, 462, 463, 464, 465
 466, 467, 468, 469, 470, 471, 472, 473, 474, 475, 476, 477, 478, 479, 480, 481
 482, 483, 484, 485, 486, 487, 488, 489, 490, 491, 492, 493, 494, 495, 496, 497
** ... 6 like lines cut
*Elset, elset=ROCK_BC, instance=ROCK_INST
    1,   25,   49,   73,   97,  121,  145,  169,  193,  217,  241,  265,  289,  313,  337,  361
  385,  409,  433,  457,  481,  505,  529,  553,  577,  601,  625,  649,  673,  697,  721,  745
  769,  793,  817,  841,  865,  889,  913,  937,  961,  985, 1009, 1033, 1057, 1081, 1105, 1129
 1153, 1177, 1201, 1225, 1249, 1273, 1297, 1321, 1345, 1369, 1393, 1417, 1441, 1465, 1489, 1513
 1537, 1561, 1585, 1609, 1633, 1657, 1681, 1705, 1729, 1753, 1777, 1801, 1825, 1849, 1873, 1897
 1921, 1945, 1969, 1993, 2017, 2041, 2065, 2089, 2113, 2137, 2161, 2185, 2209, 2233, 2257, 2281
 2305, 2329, 2353, 2377, 2401, 2425, 2449, 2473, 2497, 2521, 2545, 2569, 2593, 2617, 2641, 2665
 2689, 2713, 2737, 2761, 2785, 2809, 2833, 2857, 2881, 2905, 2929, 2953, 2977, 3001, 3025, 3049
 3073, 3120, 3144, 3168, 3192, 3216, 3240, 3264, 3288, 3312, 3336, 3360, 3384, 3408, 3432, 3456
 3480, 3504, 3528, 3552, 3576, 3600, 3624, 3648, 3672, 3696, 3720, 3744, 3768, 3792, 3816, 3840
 3864, 3888, 3912, 3936, 3960, 3984, 4008, 4032, 4056, 4080, 4104, 4128, 4152, 4176, 4200, 4224
 4248, 4272, 4296, 4320, 4344, 4368, 4392, 4416, 4440, 4464, 4488, 4512, 4536, 4560, 4584, 4608
 4632, 4656, 4680, 4704, 4728, 4752, 4776, 4800, 4824, 4848, 4872, 4896, 4920, 4944, 4968, 4992
 5016, 5040, 5064, 5088, 5112, 5136, 5160, 5184, 5208, 5232, 5256, 5280, 5304, 5328, 5352, 5376
 5400, 5424, 5448, 5472, 5496, 5520, 5544, 5568, 5592, 5616, 5640, 5664, 5688, 5712, 5736, 5760
 5784, 5808, 5832, 5856, 5880, 5904, 5928, 5952, 5976, 6000, 6024, 6048, 6072, 6096, 6120, 6144
 6168, 6192, 6216, 6240, 6264, 6288, 6312, 6336, 6360, 6384, 6408, 6432, 6456, 6480, 6504, 6528
 6552, 6576, 6600, 6624, 6648, 6672, 6696, 6720, 6744, 6768, 6792, 6816, 6840, 6864, 6888, 6912
 6936, 6960, 6984, 7008, 7032, 7056, 7080, 7104, 7128, 7152, 7176, 7200, 7224, 7248, 7272, 7296
 7320, 7344, 7368, 7392, 7416, 7440, 7464, 7488, 7512, 7536, 7560, 7584, 7608, 7632, 7656, 7680
** ... 6 like lines cut
*Nset, nset=ROCK_OUTPUT, instance=ROCK_INST, generate
     1,  10250,      1
*Elset, elset=ROCK_OUTPUT, instance=ROCK_INST, generate
    1,  9816,     1
*Nset, nset=YSYM_BASE, instance=FLUID_INST
   3,   4, 138, 139, 140
*Nset, nset=YSYM_BASE, instance=PIPE_INST
   3,   4, 138, 139, 140
*Nset, nset=YSYM_BASE, instance=ROCK_INST
   3,   4, 158, 159, 160, 161, 162, 163, 164, 165, 166, 167, 168, 169, 170, 171
 172, 173, 174, 175, 176, 177, 178, 179, 180
*Elset, elset=YSYM_BASE, instance=FLUID_INST, generate
 513,  516,    1
*Elset, elset=YSYM_BASE, instance=PIPE_INST, generate
 513,  516,    1
*Elset, elset=YSYM_BASE, instance=ROCK_INST, generate
 3073,  3096,     1
*Nset, nset=YSYM_TOP, instance=FLUID_INST
   5,   6, 548, 549, 550
*Nset, nset=YSYM_TOP, instance=PIPE_INST
   5,   6, 548, 549, 550
*Nset, nset=YSYM_TOP, instance=ROCK_INST
   5,   6, 588, 589, 590, 591, 592, 593, 594, 595, 596, 597, 598, 599, 600, 601
 602, 603, 604, 605, 606, 607, 608, 609, 610
*Elset, elset=YSYM_TOP, instance=FLUID_INST, generate
 1633,  1636,     1
*Elset, elset=YSYM_TOP, instance=PIPE_INST, generate
 1633,  1636,     1
*Elset, elset=YSYM_TOP, instance=ROCK_INST, generate
 9793,  9816,     1
*Elset, elset=_FASEI_ANNULAR_S2, internal, instance=FLUID_INST, generate
    4,  1636,     4
*Elset, elset=_FASEI_ANNULAR_S3, internal, instance=FLUID_INST
  513,  514,  515,  516, 1633, 1634, 1635, 1636
*Elset, elset=_FASEI_ANNULAR_S4, internal, instance=FLUID_INST, generate
    1,  1633,     4
*Surface, type=ELEMENT, name=FASEI_ANNULAR
_FASEI_ANNULAR_S2, S2
_FASEI_ANNULAR_S3, S3
_FASEI_ANNULAR_S4, S4
*Elset, elset=_FASEI_COMPLETED_WELL_S2, internal, instance=PIPE_INST, generate
   4,  516,    4
*Elset, elset=_FASEI_COMPLETED_WELL_S4, internal, instance=PIPE_INST, generate
  517,  1633,     4
*Surface, type=ELEMENT, name=FASEI_COMPLETED_WELL
_FASEI_COMPLETED_WELL_S2, S2
_FASEI_COMPLETED_WELL_S4, S4
*Elset, elset=_FASEI_FLUIDO_S4, internal, instance=PIPE_INST, generate
   1,  513,    4
*Elset, elset=_FASEI_FLUIDO_S4, internal, instance=ROCK_INST, generate
 3097,  9793,    24
*Elset, elset=_FASEI_FLUIDO_S2, internal, instance=PIPE_INST, generate
  520,  1636,     4
*Elset, elset=_FASEI_FLUIDO_S2, internal, instance=ROCK_INST, generate
   24,  3096,    24
*Surface, type=ELEMENT, name=FASEI_FLUIDO
_FASEI_FLUIDO_S4, S4
_FASEI_FLUIDO_S2, S2
*Elset, elset=_FASEI_MASTER_S4, internal, instance=PIPE_INST, generate
   1,  513,    4
*Elset, elset=_FASEI_MASTER_S2, internal, instance=PIPE_INST, generate
  520,  1636,     4
*Surface, type=ELEMENT, name=FASEI_MASTER
_FASEI_MASTER_S4, S4
_FASEI_MASTER_S2, S2
*Elset, elset=_FASEI_OPEN_WELL_S2, internal, instance=ROCK_INST, generate
   24,  3096,    24
*Elset, elset=_FASEI_OPEN_WELL_S4, internal, instance=ROCK_INST, generate
 3097,  9793,    24
*Surface, type=ELEMENT, name=FASEI_OPEN_WELL
_FASEI_OPEN_WELL_S2, S2
_FASEI_OPEN_WELL_S4, S4
*Elset, elset=_FASEI_REV_S2, internal, instance=PIPE_INST, generate
    4,  1636,     4
*Elset, elset=_FASEI_REV_S3, internal, instance=PIPE_INST
  513,  514,  515,  516, 1633, 1634, 1635, 1636
*Elset, elset=_FASEI_REV_S4, internal, instance=PIPE_INST, generate
    1,  1633,     4
*Surface, type=ELEMENT, name=FASEI_REV
_FASEI_REV_S2, S2
_FASEI_REV_S3, S3
_FASEI_REV_S4, S4
*Elset, elset=_FASEI_WELL_S2, internal, instance=ROCK_INST, generate
   24,  3096,    24
*Elset, elset=_FASEI_WELL_S4, internal, instance=ROCK_INST, generate
 3097,  9793,    24
*Surface, type=ELEMENT, name=FASEI_WELL
_FASEI_WELL_S2, S2
_FASEI_WELL_S4, S4
*Surface, type=NODE, name=ROCK_INST_FASEI_SLAVE_CNS_, internal
ROCK_INST.FASEI_SLAVE, 1.
*End Assembly
** 
** MATERIALS
** 
*Material, name=FLUID
*Conductivity
 0.702,
*Density
1.,
*Elastic
10000.,0.
*Specific Heat
2060.,
*Material, name=LAYER_01_SANDSTONE
*Conductivity
 1.869,
*Density
 2299.92,
*Elastic
 2.4062e+10, 0.25
*Expansion
 1e-05,
*Specific Heat
 0.209946,
*Mohr Coulomb
30., 7.5
*Mohr Coulomb Hardening
 2.00017e+07,0.
*Material, name=LAYER_02_HALITE
*Conductivity
 5.55,
*Creep, law=DOUBLE POWER
 0.0077864,    6042.9,      2.94, 0.0076093,    6042.9,      8.15,  1.03e+07
*Density
 2169.93,
*Elastic
 2.04e+10, 0.36
*Expansion
 1e-05,
*Specific Heat
 0.209946,
*Material, name=STEEL
*Conductivity
 45.3452,
*Density
7935.,
*Elastic
 2.06843e+11, 0.3
*Expansion
 0.0001242,
*Specific Heat
 460.9,
** 
** INTERACTION PROPERTIES
** 
*Surface Interaction, name=C_FASEI
1.,
*Friction, slip tolerance=0.005
 0.5,
*Surface Behavior, pressure-overclosure=HARD
*Time Points, name=timePoint
1., 3600., 7200., 14400., 28800., 57600., 86400., 172800.
345600., 691200., 1.3824e+06, 2.7648e+06, 5.5296e+06, 1.10592e+07, 2.21184e+07, 3.1536e+07
6.3072e+07, 1.26144e+08, 2.52288e+08, 5.04576e+08, 9.4608e+08
** 
** PHYSICAL CONSTANTS
** 
*Physical Constants, absolute zero=0., stefan boltzmann=5.67037e-08
** 
** BOUNDARY CONDITIONS
** 
** Name: FIX_FASEI_WELL Type: Symmetry/Antisymmetry/Encastre
*Boundary
FASEI_OPEN_WELL, XSYMM
** Name: PIN_FASEI Type: Symmetry/Antisymmetry/Encastre
*Boundary
PIPE_INST.FASEI_REV, PINNED
** Name: XSYM_ROCK_BC Type: Symmetry/Antisymmetry/Encastre
*Boundary
ROCK_BC, XSYMM
** Name: YSYM_BASE Type: Symmetry/Antisymmetry/Encastre
*Boundary
YSYM_BASE, YSYMM
** Name: YSYM_TOP Type: Symmetry/Antisymmetry/Encastre
*Boundary
YSYM_TOP, YSYMM
** 
** PREDEFINED FIELDS
** 
** Name: NT_FASEI   Type: Temperature Using Field: Geotermico
*Initial Conditions, type=TEMPERATURE
FLUID_INST.1, 311.253
FLUID_INST.2, 311.253
FLUID_INST.3, 321.857
FLUID_INST.4, 321.857
FLUID_INST.5, 287.86
FLUID_INST.6, 287.86
FLUID_INST.7, 311.253
FLUID_INST.8, 311.253
FLUID_INST.9, 311.253
FLUID_INST.10, 311.253
FLUID_INST.11, 311.306
FLUID_INST.12, 311.306
FLUID_INST.13, 311.359
FLUID_INST.14, 311.359
FLUID_INST.15, 311.413
FLUID_INST.16, 311.413
FLUID_INST.17, 311.466
FLUID_INST.18, 311.466
FLUID_INST.19, 311.519
FLUID_INST.20, 311.519
** ... 2030 like lines cut
PIPE_INST.1, 311.253
PIPE_INST.2, 311.253
PIPE_INST.3, 321.857
PIPE_INST.4, 321.857
PIPE_INST.5, 287.86
PIPE_INST.6, 287.86
PIPE_INST.7, 311.253
PIPE_INST.8, 311.253
PIPE_INST.9, 311.253
PIPE_INST.10, 311.253
PIPE_INST.11, 311.306
PIPE_INST.12, 311.306
PIPE_INST.13, 311.359
PIPE_INST.14, 311.359
PIPE_INST.15, 311.413
PIPE_INST.16, 311.413
PIPE_INST.17, 311.466
PIPE_INST.18, 311.466
PIPE_INST.19, 311.519
PIPE_INST.20, 311.519
** ... 2030 like lines cut
** Name: NT_FASEI_ID   Type: Temperature Using Field: Geotermico
*Initial Conditions, type=TEMPERATURE
PIPE_INST.2, 311.253
PIPE_INST.3, 321.857
PIPE_INST.6, 287.86
PIPE_INST.10, 311.253
PIPE_INST.11, 311.306
PIPE_INST.12, 311.306
PIPE_INST.13, 311.359
PIPE_INST.14, 311.359
PIPE_INST.15, 311.413
PIPE_INST.16, 311.413
PIPE_INST.17, 311.466
PIPE_INST.18, 311.466
PIPE_INST.19, 311.519
PIPE_INST.20, 311.519
PIPE_INST.21, 311.573
PIPE_INST.22, 311.626
PIPE_INST.23, 311.626
PIPE_INST.24, 311.679
PIPE_INST.25, 311.679
PIPE_INST.26, 311.732
** ... 390 like lines cut
** Name: NT_L1-I   Type: Temperature Using Field: NT_L1-I
*Initial Conditions, type=TEMPERATURE
ROCK_INST.1, 311.261
ROCK_INST.2, 311.261
ROCK_INST.5, 287.814
ROCK_INST.6, 287.814
ROCK_INST.7, 311.261
ROCK_INST.8, 311.261
ROCK_INST.9, 311.261
ROCK_INST.10, 311.261
ROCK_INST.11, 311.261
ROCK_INST.12, 311.261
ROCK_INST.13, 311.261
ROCK_INST.14, 311.261
ROCK_INST.15, 311.261
ROCK_INST.16, 311.261
ROCK_INST.17, 311.261
ROCK_INST.18, 311.261
ROCK_INST.19, 311.261
ROCK_INST.20, 311.261
ROCK_INST.21, 311.261
ROCK_INST.22, 311.261
** ... 7005 like lines cut
** Name: NT_L1-I_OD   Type: Temperature Using Field: NT_L1-I
*Initial Conditions, type=TEMPERATURE
ROCK_INST.1, 311.261
ROCK_INST.5, 287.814
ROCK_INST.309, 311.239
ROCK_INST.310, 311.218
ROCK_INST.311, 311.196
ROCK_INST.312, 311.173
ROCK_INST.313, 311.15
ROCK_INST.314, 311.127
ROCK_INST.315, 311.104
ROCK_INST.316, 311.08
ROCK_INST.317, 311.055
ROCK_INST.318, 311.031
ROCK_INST.319, 311.005
ROCK_INST.320, 310.98
ROCK_INST.321, 310.954
ROCK_INST.322, 310.927
ROCK_INST.323, 310.901
ROCK_INST.324, 310.873
ROCK_INST.325, 310.845
ROCK_INST.326, 310.817
** ... 261 like lines cut
** Name: NT_L2-I   Type: Temperature Using Field: NT_L2-I
*Initial Conditions, type=TEMPERATURE
ROCK_INST.1, 311.206
ROCK_INST.2, 311.206
ROCK_INST.3, 321.861
ROCK_INST.4, 321.861
ROCK_INST.7, 311.206
ROCK_INST.8, 311.206
ROCK_INST.9, 311.206
ROCK_INST.10, 311.206
ROCK_INST.11, 311.206
ROCK_INST.12, 311.206
ROCK_INST.13, 311.206
ROCK_INST.14, 311.206
ROCK_INST.15, 311.206
ROCK_INST.16, 311.206
ROCK_INST.17, 311.206
ROCK_INST.18, 311.206
ROCK_INST.19, 311.206
ROCK_INST.20, 311.206
ROCK_INST.21, 311.206
ROCK_INST.22, 311.206
** ... 3230 like lines cut
** Name: NT_L2-I_OD   Type: Temperature Using Field: NT_L2-I
*Initial Conditions, type=TEMPERATURE
ROCK_INST.1, 311.206
ROCK_INST.4, 321.861
ROCK_INST.181, 321.84
ROCK_INST.182, 321.818
ROCK_INST.183, 321.795
ROCK_INST.184, 321.771
ROCK_INST.185, 321.747
ROCK_INST.186, 321.721
ROCK_INST.187, 321.695
ROCK_INST.188, 321.667
ROCK_INST.189, 321.639
ROCK_INST.190, 321.609
ROCK_INST.191, 321.579
ROCK_INST.192, 321.547
ROCK_INST.193, 321.514
ROCK_INST.194, 321.48
ROCK_INST.195, 321.445
ROCK_INST.196, 321.409
ROCK_INST.197, 321.371
ROCK_INST.198, 321.332
** ... 110 like lines cut
** Name: S_FASEI_REV   Type: Geostatic stress
*Initial Conditions, type=STRESS, GEOSTATIC
PIPE_INST.FASEI_REV, 1.62564e+08, -2500., 3.80162e+07, -4100., 0., 0.
** Name: S_L1-I   Type: Geostatic stress
*Initial Conditions, type=STRESS, GEOSTATIC
ROCK_INST.L1-I, -3.1263e+07, -2500., -5.60815e+07, -3600., 1., 1.
** Name: S_L2-I   Type: Geostatic stress
*Initial Conditions, type=STRESS, GEOSTATIC
ROCK_INST.L2-I, -5.60815e+07, -3600., -6.6725e+07, -4100., 1., 1.
** 
** INTERACTIONS
** 
** Interaction: C_FASEI
*Contact Pair, interaction=C_FASEI, type=SURFACE TO SURFACE
ROCK_INST_FASEI_SLAVE_CNS_, FASEI_MASTER
** ----------------------------------------------------------------
** 
** STEP: Geostatic
** 
*Step, name=Geostatic, nlgeom=YES
*Geostatic
** 
** LOADS
** 
** Name: GRAVITY   Type: Gravity
*Dload, op=NEW
, GRAV, 9.81, , -1.
** 
** INTERACTIONS
** 
** Interaction: C_FASEI
*Model Change, type=CONTACT PAIR, remove
ROCK_INST_FASEI_SLAVE_CNS_, FASEI_MASTER
** Interaction: MC_FASEI_FLUIDO
*Model Change, remove
FLUID_INST.FASEI_FLUIDO, 
** Interaction: MC_FASEI_REV
*Model Change, remove
PIPE_INST.FASEI_REV, 
** 
** OUTPUT REQUESTS
** 
*Restart, write, frequency=0
** 
** FIELD OUTPUT: FASEI_REV
** 
*Output, field
*Node Output, nset=PIPE_INST.FASEI_REV
NT, U
*Element Output, elset=PIPE_INST.FASEI_REV, directions=YES
E, MISES, PE, S, PEEQ
** 
** FIELD OUTPUT: ROCK_OUTPUT
** 
*Node Output, nset=ROCK_OUTPUT
U, 
*Element Output, elset=ROCK_OUTPUT, directions=YES
TEMP, 
*Output, history, frequency=0
*End Step
** ----------------------------------------------------------------
** 
** STEP: Transition
** 
*Step, name=Transition, nlgeom=YES
*Static
1., 2., 2e-05, 2.
** 
** LOADS
** 
** Name: GRAVITY   Type: Gravity
*Dload, op=NEW
, GRAV, 9.81, , -1.
** 
** OUTPUT REQUESTS
** 
*Restart, write, frequency=0
** 
** FIELD OUTPUT: FASEI_REV
** 
*Output, field, time points=timePoint
*Node Output, nset=PIPE_INST.FASEI_REV
NT, U
*Element Output, elset=PIPE_INST.FASEI_REV, directions=YES
E, MISES, PE, S, PEEQ
** 
** FIELD OUTPUT: ROCK_OUTPUT
** 
*Node Output, nset=ROCK_OUTPUT
U, 
*Element Output, elset=ROCK_OUTPUT, directions=YES
TEMP, 
*Output, history, frequency=0
*End Step
** ----------------------------------------------------------------
** 
** STEP: TempDefine
** 
*Step, name=TempDefine, nlgeom=YES
*Static
1., 3., 3e-05, 3.
** 
** LOADS
** 
** Name: GRAVITY   Type: Gravity
*Dload, op=NEW
, GRAV, 9.81, , -1.
** 
** OUTPUT REQUESTS
** 
*Restart, write, frequency=0
** 
** FIELD OUTPUT: FASEI_REV
** 
*Output, field, time points=timePoint
*Node Output, nset=PIPE_INST.FASEI_REV
NT, U
*Element Output, elset=PIPE_INST.FASEI_REV, directions=YES
E, MISES, PE, S, PEEQ
** 
** FIELD OUTPUT: ROCK_OUTPUT
** 
*Node Output, nset=ROCK_OUTPUT
U, 
*Element Output, elset=ROCK_OUTPUT, directions=YES
TEMP, 
*Output, history, frequency=0
*End Step
** ----------------------------------------------------------------
** 
** STEP: Perf_10_375
** 
*Step, name=Perf_10_375, nlgeom=YES
*Static
1., 1., 1e-05, 1.
** 
** BOUNDARY CONDITIONS
** 
** Name: FIX_FASEI_WELL Type: Symmetry/Antisymmetry/Encastre
*Boundary, op=NEW
** Name: PIN_FASEI Type: Symmetry/Antisymmetry/Encastre
*Boundary, op=NEW
PIPE_INST.FASEI_REV, PINNED
** Name: XSYM_ROCK_BC Type: Symmetry/Antisymmetry/Encastre
*Boundary, op=NEW
ROCK_BC, XSYMM
** Name: YSYM_BASE Type: Symmetry/Antisymmetry/Encastre
*Boundary, op=NEW
YSYM_BASE, YSYMM
** Name: YSYM_TOP Type: Symmetry/Antisymmetry/Encastre
*Boundary, op=NEW
YSYM_TOP, YSYMM
** 
** LOADS
** 
** Name: GRAVITY   Type: Gravity
*Dload, op=NEW
, GRAV, 9.81, , -1.
** Name: P_FASEI_OPEN_WELL   Type: Pressure Using Field: P_FASEI_OPEN_WELL
*Dload, op=NEW
ROCK_INST.24, P2, 3.59751e+07
ROCK_INST.48, P2, 3.59853e+07
ROCK_INST.72, P2, 3.59958e+07
ROCK_INST.96, P2, 3.60067e+07
ROCK_INST.120, P2, 3.60181e+07
ROCK_INST.144, P2, 3.60298e+07
ROCK_INST.168, P2, 3.6042e+07
ROCK_INST.192, P2, 3.60546e+07
ROCK_INST.216, P2, 3.60677e+07
ROCK_INST.240, P2, 3.60813e+07
ROCK_INST.264, P2, 3.60953e+07
ROCK_INST.288, P2, 3.61099e+07
ROCK_INST.312, P2, 3.6125e+07
ROCK_INST.336, P2, 3.61406e+07
ROCK_INST.360, P2, 3.61569e+07
ROCK_INST.384, P2, 3.61737e+07
ROCK_INST.408, P2, 3.61911e+07
ROCK_INST.432, P2, 3.62092e+07
ROCK_INST.456, P2, 3.62279e+07
ROCK_INST.480, P2, 3.62474e+07
** ... 389 like lines cut
** 
** OUTPUT REQUESTS
** 
*Restart, write, frequency=0
** 
** FIELD OUTPUT: FASEI_REV
** 
*Output, field, time points=timePoint
*Node Output, nset=PIPE_INST.FASEI_REV
NT, U
*Element Output, elset=PIPE_INST.FASEI_REV, directions=YES
E, MISES, PE, S, PEEQ
** 
** FIELD OUTPUT: ROCK_OUTPUT
** 
*Node Output, nset=ROCK_OUTPUT
U, 
*Element Output, elset=ROCK_OUTPUT, directions=YES
TEMP, 
*Output, history, frequency=0
*End Step
** ----------------------------------------------------------------
** 
** STEP: Perf_10_375_Creep
** 
*Step, name=Perf_10_375_Creep, nlgeom=YES, inc=1000000
*Visco, cetol=0.0001
1e-06, 172800., 1e-15, 172800.
** 
** LOADS
** 
** Name: GRAVITY   Type: Gravity
*Dload, op=NEW
, GRAV, 9.81, , -1.
** Name: P_FASEI_OPEN_WELL   Type: Pressure Using Field: P_FASEI_OPEN_WELL
*Dload, op=NEW
ROCK_INST.24, P2, 3.59751e+07
ROCK_INST.48, P2, 3.59853e+07
ROCK_INST.72, P2, 3.59958e+07
ROCK_INST.96, P2, 3.60067e+07
ROCK_INST.120, P2, 3.60181e+07
ROCK_INST.144, P2, 3.60298e+07
ROCK_INST.168, P2, 3.6042e+07
ROCK_INST.192, P2, 3.60546e+07
ROCK_INST.216, P2, 3.60677e+07
ROCK_INST.240, P2, 3.60813e+07
ROCK_INST.264, P2, 3.60953e+07
ROCK_INST.288, P2, 3.61099e+07
ROCK_INST.312, P2, 3.6125e+07
ROCK_INST.336, P2, 3.61406e+07
ROCK_INST.360, P2, 3.61569e+07
ROCK_INST.384, P2, 3.61737e+07
ROCK_INST.408, P2, 3.61911e+07
ROCK_INST.432, P2, 3.62092e+07
ROCK_INST.456, P2, 3.62279e+07
ROCK_INST.480, P2, 3.62474e+07
** ... 389 like lines cut
** 
** OUTPUT REQUESTS
** 
*Restart, write, frequency=0
** 
** FIELD OUTPUT: FASEI_REV
** 
*Output, field, time points=timePoint
*Node Output, nset=PIPE_INST.FASEI_REV
NT, U
*Element Output, elset=PIPE_INST.FASEI_REV, directions=YES
E, MISES, PE, S, PEEQ
** 
** FIELD OUTPUT: ROCK_OUTPUT
** 
*Node Output, nset=ROCK_OUTPUT
U, 
*Element Output, elset=ROCK_OUTPUT, directions=YES
TEMP, 
*Output, history, frequency=0
*End Step
** ----------------------------------------------------------------
** 
** STEP: Rev_9_875
** 
*Step, name=Rev_9_875, nlgeom=YES
*Static
1., 1., 1e-15, 1.
** 
** BOUNDARY CONDITIONS
** 
** Name: PIN_FASEI Type: Symmetry/Antisymmetry/Encastre
*Boundary, op=NEW
** Name: XSYM_ROCK_BC Type: Symmetry/Antisymmetry/Encastre
*Boundary, op=NEW
ROCK_BC, XSYMM
** Name: YSYM_BASE Type: Symmetry/Antisymmetry/Encastre
*Boundary, op=NEW
YSYM_BASE, YSYMM
** Name: YSYM_TOP Type: Symmetry/Antisymmetry/Encastre
*Boundary, op=NEW
YSYM_TOP, YSYMM
** 
** LOADS
** 
** Name: GRAVITY   Type: Gravity
*Dload, op=NEW
, GRAV, 9.81, , -1.
** Name: P_FASEI_COMPLETED_WELL   Type: Pressure Using Field: P_FASEI_COMPLETED_WELL
*Dload, op=NEW
PIPE_INST.4, P2, 3.59751e+07
PIPE_INST.8, P2, 3.59853e+07
PIPE_INST.12, P2, 3.59958e+07
PIPE_INST.16, P2, 3.60067e+07
PIPE_INST.20, P2, 3.60181e+07
PIPE_INST.24, P2, 3.60298e+07
PIPE_INST.28, P2, 3.6042e+07
PIPE_INST.32, P2, 3.60546e+07
PIPE_INST.36, P2, 3.60677e+07
PIPE_INST.40, P2, 3.60813e+07
PIPE_INST.44, P2, 3.60953e+07
PIPE_INST.48, P2, 3.61099e+07
PIPE_INST.52, P2, 3.6125e+07
PIPE_INST.56, P2, 3.61406e+07
PIPE_INST.60, P2, 3.61569e+07
PIPE_INST.64, P2, 3.61737e+07
PIPE_INST.68, P2, 3.61911e+07
PIPE_INST.72, P2, 3.62092e+07
PIPE_INST.76, P2, 3.62279e+07
PIPE_INST.80, P2, 3.62474e+07
** ... 389 like lines cut
** Name: P_FASEI_FLUID   Type: Pressure Using Field: P_FASEI_FLUID
*Dload, op=NEW
PIPE_INST.1, P4, 3.59751e+07
PIPE_INST.5, P4, 3.59853e+07
PIPE_INST.9, P4, 3.59958e+07
PIPE_INST.13, P4, 3.60067e+07
PIPE_INST.17, P4, 3.60181e+07
PIPE_INST.21, P4, 3.60298e+07
PIPE_INST.25, P4, 3.6042e+07
PIPE_INST.29, P4, 3.60546e+07
PIPE_INST.33, P4, 3.60677e+07
PIPE_INST.37, P4, 3.60813e+07
PIPE_INST.41, P4, 3.60953e+07
PIPE_INST.45, P4, 3.61099e+07
PIPE_INST.49, P4, 3.6125e+07
PIPE_INST.53, P4, 3.61406e+07
PIPE_INST.57, P4, 3.61569e+07
PIPE_INST.61, P4, 3.61737e+07
PIPE_INST.65, P4, 3.61911e+07
PIPE_INST.69, P4, 3.62092e+07
PIPE_INST.73, P4, 3.62279e+07
PIPE_INST.77, P4, 3.62474e+07
** ... 389 like lines cut
ROCK_INST.24, P2, 3.59751e+07
ROCK_INST.48, P2, 3.59853e+07
ROCK_INST.72, P2, 3.59958e+07
ROCK_INST.96, P2, 3.60067e+07
ROCK_INST.120, P2, 3.60181e+07
ROCK_INST.144, P2, 3.60298e+07
ROCK_INST.168, P2, 3.6042e+07
ROCK_INST.192, P2, 3.60546e+07
ROCK_INST.216, P2, 3.60677e+07
ROCK_INST.240, P2, 3.60813e+07
ROCK_INST.264, P2, 3.60953e+07
ROCK_INST.288, P2, 3.61099e+07
ROCK_INST.312, P2, 3.6125e+07
ROCK_INST.336, P2, 3.61406e+07
ROCK_INST.360, P2, 3.61569e+07
ROCK_INST.384, P2, 3.61737e+07
ROCK_INST.408, P2, 3.61911e+07
ROCK_INST.432, P2, 3.62092e+07
ROCK_INST.456, P2, 3.62279e+07
ROCK_INST.480, P2, 3.62474e+07
** ... 389 like lines cut
** Name: P_FASEI_OPEN_WELL   Type: Pressure Using Field: P_FASEI_OPEN_WELL
*Dload, op=NEW
** 
** INTERACTIONS
** 
** Interaction: C_FASEI
*Model Change, type=CONTACT PAIR, add
ROCK_INST_FASEI_SLAVE_CNS_, FASEI_MASTER
** Interaction: MC_FASEI_REV
*Model Change, add
PIPE_INST.FASEI_REV, 
** 
** OUTPUT REQUESTS
** 
*Restart, write, frequency=0
** 
** FIELD OUTPUT: FASEI_REV
** 
*Output, field, time points=timePoint
*Node Output, nset=PIPE_INST.FASEI_REV
NT, U
*Element Output, elset=PIPE_INST.FASEI_REV, directions=YES
E, MISES, PE, S, PEEQ
** 
** FIELD OUTPUT: ROCK_OUTPUT
** 
*Node Output, nset=ROCK_OUTPUT
U, 
*Element Output, elset=ROCK_OUTPUT, directions=YES
TEMP, 
*Output, history, frequency=0
*End Step
** ----------------------------------------------------------------
** 
** STEP: Rev_9_875_Creep
** 
*Step, name=Rev_9_875_Creep, nlgeom=YES, inc=1000000
*Visco, cetol=0.0001
1e-06, 9.4608e+08, 1e-15, 1.5552e+07
** 
** LOADS
** 
** Name: GRAVITY   Type: Gravity
*Dload, op=NEW
, GRAV, 9.81, , -1.
** Name: P_FASEI_COMPLETED_WELL   Type: Pressure Using Field: P_FASEI_COMPLETED_WELL
*Dload, op=NEW
PIPE_INST.4, P2, 3.59751e+07
PIPE_INST.8, P2, 3.59853e+07
PIPE_INST.12, P2, 3.59958e+07
PIPE_INST.16, P2, 3.60067e+07
PIPE_INST.20, P2, 3.60181e+07
PIPE_INST.24, P2, 3.60298e+07
PIPE_INST.28, P2, 3.6042e+07
PIPE_INST.32, P2, 3.60546e+07
PIPE_INST.36, P2, 3.60677e+07
PIPE_INST.40, P2, 3.60813e+07
PIPE_INST.44, P2, 3.60953e+07
PIPE_INST.48, P2, 3.61099e+07
PIPE_INST.52, P2, 3.6125e+07
PIPE_INST.56, P2, 3.61406e+07
PIPE_INST.60, P2, 3.61569e+07
PIPE_INST.64, P2, 3.61737e+07
PIPE_INST.68, P2, 3.61911e+07
PIPE_INST.72, P2, 3.62092e+07
PIPE_INST.76, P2, 3.62279e+07
PIPE_INST.80, P2, 3.62474e+07
** ... 389 like lines cut
** Name: P_FASEI_FLUID   Type: Pressure Using Field: P_FASEI_FLUID
*Dload, op=NEW
PIPE_INST.1, P4, 3.59751e+07
PIPE_INST.5, P4, 3.59853e+07
PIPE_INST.9, P4, 3.59958e+07
PIPE_INST.13, P4, 3.60067e+07
PIPE_INST.17, P4, 3.60181e+07
PIPE_INST.21, P4, 3.60298e+07
PIPE_INST.25, P4, 3.6042e+07
PIPE_INST.29, P4, 3.60546e+07
PIPE_INST.33, P4, 3.60677e+07
PIPE_INST.37, P4, 3.60813e+07
PIPE_INST.41, P4, 3.60953e+07
PIPE_INST.45, P4, 3.61099e+07
PIPE_INST.49, P4, 3.6125e+07
PIPE_INST.53, P4, 3.61406e+07
PIPE_INST.57, P4, 3.61569e+07
PIPE_INST.61, P4, 3.61737e+07
PIPE_INST.65, P4, 3.61911e+07
PIPE_INST.69, P4, 3.62092e+07
PIPE_INST.73, P4, 3.62279e+07
PIPE_INST.77, P4, 3.62474e+07
** ... 389 like lines cut
ROCK_INST.24, P2, 3.59751e+07
ROCK_INST.48, P2, 3.59853e+07
ROCK_INST.72, P2, 3.59958e+07
ROCK_INST.96, P2, 3.60067e+07
ROCK_INST.120, P2, 3.60181e+07
ROCK_INST.144, P2, 3.60298e+07
ROCK_INST.168, P2, 3.6042e+07
ROCK_INST.192, P2, 3.60546e+07
ROCK_INST.216, P2, 3.60677e+07
ROCK_INST.240, P2, 3.60813e+07
ROCK_INST.264, P2, 3.60953e+07
ROCK_INST.288, P2, 3.61099e+07
ROCK_INST.312, P2, 3.6125e+07
ROCK_INST.336, P2, 3.61406e+07
ROCK_INST.360, P2, 3.61569e+07
ROCK_INST.384, P2, 3.61737e+07
ROCK_INST.408, P2, 3.61911e+07
ROCK_INST.432, P2, 3.62092e+07
ROCK_INST.456, P2, 3.62279e+07
ROCK_INST.480, P2, 3.62474e+07
** ... 389 like lines cut
** 
** OUTPUT REQUESTS
** 
*Restart, write, frequency=0
** 
** FIELD OUTPUT: FASEI_REV
** 
*Output, field, time points=timePoint
*Node Output, nset=PIPE_INST.FASEI_REV
NT, U
*Element Output, elset=PIPE_INST.FASEI_REV, directions=YES
E, MISES, PE, S, PEEQ
** 
** FIELD OUTPUT: ROCK_OUTPUT
** 
*Node Output, nset=ROCK_OUTPUT
U, 
*Element Output, elset=ROCK_OUTPUT, directions=YES
TEMP, 
*Output, history, frequency=0
*End Step
