*Heading
** Job name: WellClosureJob Model name: MyFirstModel
** Generated by: Abaqus/CAE 2024
*Preprint, echo=NO, model=NO, history=NO, contact=NO
**
** PARTS
**
*Part, name=FLUID
*End Part
**  
*Part, name=PIPE
*End Part
**  
*Part, name=ROCK
*End Part
**  
**
** ASSEMBLY
**
*Assembly, name=Assembly
**  
*Instance, name=FLUID_INST, part=FLUID
*Node
      1,  0.155575007,       -2600.
      2,  0.150678098,       -2600.
      3,  0.145781189,       -2600.
      4,   0.14088428,       -2600.
      5,  0.155575007,  -2639.13037
      6,  0.150678098,  -2639.13037
      7,  0.145781189,  -2639.13037
      8,   0.14088428,  -2639.13037
      9,  0.155575007,  -2678.26099
     10,  0.150678098,  -2678.26099
     11,  0.145781189,  -2678.26099
     12,   0.14088428,  -2678.26099
     13,  0.155575007,  -2717.39136
     14,  0.150678098,  -2717.39136
     15,  0.145781189,  -2717.39136
     16,   0.14088428,  -2717.39136
     17,  0.155575007,  -2756.52173
     18,  0.150678098,  -2756.52173
     19,  0.145781189,  -2756.52173
     20,   0.14088428,  -2756.52173
** ... 76 like lines cut
*Element, type=CAX4
 1,  1,  2,  6,  5
 2,  2,  3,  7,  6
 3,  3,  4,  8,  7
 4,  5,  6, 10,  9
 5,  6,  7, 11, 10
 6,  7,  8, 12, 11
 7,  9, 10, 14, 13
 8, 10, 11, 15, 14
 9, 11, 12, 16, 15
10, 13, 14, 18, 17
11, 14, 15, 19, 18
12, 15, 16, 20, 19
13, 17, 18, 22, 21
14, 18, 19, 23, 22
15, 19, 20, 24, 23
16, 21, 22, 26, 25
17, 22, 23, 27, 26
18, 23, 24, 28, 27
19, 25, 26, 30, 29
20, 26, 27, 31, 30
** ... 49 like lines cut
*Nset, nset=FASEI_FLUIDO, generate
  1,  96,   1
*Elset, elset=FASEI_FLUIDO, generate
  1,  69,   1
*Nset, nset=FASEI_FLUIDO_BASE, generate
 93,  96,   1
*Elset, elset=FASEI_FLUIDO_BASE, generate
 67,  69,   1
*Nset, nset=FASEI_FLUIDO_ID, generate
  4,  96,   4
*Elset, elset=FASEI_FLUIDO_ID, generate
  3,  69,   3
*Nset, nset=FASEI_FLUIDO_OD, generate
  1,  93,   4
*Elset, elset=FASEI_FLUIDO_OD, generate
  1,  67,   3
*Nset, nset=FASEI_FLUIDO_TOP, generate
 1,  4,  1
*Elset, elset=FASEI_FLUIDO_TOP, generate
 1,  3,  1
*Nset, nset=FASEI_ANNULAR, generate
  1,  96,   1
*Elset, elset=FASEI_ANNULAR, generate
  1,  69,   1
*Nset, nset=FASEI_ANNULAR_BASE, generate
 93,  96,   1
*Elset, elset=FASEI_ANNULAR_BASE, generate
 67,  69,   1
*Nset, nset=FASEI_ANNULAR_ID, generate
  4,  96,   4
*Elset, elset=FASEI_ANNULAR_ID, generate
  3,  69,   3
*Nset, nset=FASEI_ANNULAR_OD, generate
  1,  93,   4
*Elset, elset=FASEI_ANNULAR_OD, generate
  1,  67,   3
*Nset, nset=FASEI_ANNULAR_TOP, generate
 1,  4,  1
*Elset, elset=FASEI_ANNULAR_TOP, generate
 1,  3,  1
*Nset, nset=FASEI_ANNULAR_TT
  1,  2,  3,  4, 93, 94, 95, 96
*Elset, elset=FASEI_ANNULAR_TT
  1,  2,  3, 67, 68, 69
** Section: FLUID_Section
*Solid Section, elset=FASEI_FLUIDO, material=FLUID
1.,
*End Instance
**  
*Instance, name=PIPE_INST, part=PIPE
*Node
      1,   0.14088428,       -2600.
      2,   0.13559261,       -2600.
      3,  0.130300939,       -2600.
      4,  0.125009269,       -2600.
      5,   0.14088428,  -2639.13037
      6,   0.13559261,  -2639.13037
      7,  0.130300939,  -2639.13037
      8,  0.125009269,  -2639.13037
      9,   0.14088428,  -2678.26099
     10,   0.13559261,  -2678.26099
     11,  0.130300939,  -2678.26099
     12,  0.125009269,  -2678.26099
     13,   0.14088428,  -2717.39136
     14,   0.13559261,  -2717.39136
     15,  0.130300939,  -2717.39136
     16,  0.125009269,  -2717.39136
     17,   0.14088428,  -2756.52173
     18,   0.13559261,  -2756.52173
     19,  0.130300939,  -2756.52173
     20,  0.125009269,  -2756.52173
** ... 76 like lines cut
*Element, type=CAX4
 1,  1,  2,  6,  5
 2,  2,  3,  7,  6
 3,  3,  4,  8,  7
 4,  5,  6, 10,  9
 5,  6,  7, 11, 10
 6,  7,  8, 12, 11
 7,  9, 10, 14, 13
 8, 10, 11, 15, 14
 9, 11, 12, 16, 15
10, 13, 14, 18, 17
11, 14, 15, 19, 18
12, 15, 16, 20, 19
13, 17, 18, 22, 21
14, 18, 19, 23, 22
15, 19, 20, 24, 23
16, 21, 22, 26, 25
17, 22, 23, 27, 26
18, 23, 24, 28, 27
19, 25, 26, 30, 29
20, 26, 27, 31, 30
** ... 49 like lines cut
*Nset, nset=FASEI_REV, generate
  1,  96,   1
*Elset, elset=FASEI_REV, generate
  1,  69,   1
*Nset, nset=FASEI_REV_ABOVE_TOC, generate
  1,  96,   1
*Elset, elset=FASEI_REV_ABOVE_TOC, generate
  1,  69,   1
*Nset, nset=FASEI_REV_BASE, generate
 93,  96,   1
*Elset, elset=FASEI_REV_BASE, generate
 67,  69,   1
*Nset, nset=FASEI_REV_ID, generate
  4,  96,   4
*Elset, elset=FASEI_REV_ID, generate
  3,  69,   3
*Nset, nset=FASEI_REV_OD, generate
  1,  93,   4
*Elset, elset=FASEI_REV_OD, generate
  1,  67,   3
*Nset, nset=FASEI_REV_TOP, generate
 1,  4,  1
*Elset, elset=FASEI_REV_TOP, generate
 1,  3,  1
*Nset, nset=FASEI_REV_TT
  1,  2,  3,  4, 93, 94, 95, 96
*Elset, elset=FASEI_REV_TT
  1,  2,  3, 67, 68, 69
** Section: STEEL_Section
*Solid Section, elset=FASEI_REV, material=STEEL
1.,
*End Instance
**  
*Instance, name=ROCK_INST, part=ROCK
*Node
      1,   12.1555748,       -2600.
      2,   9.15060329,       -2600.
      3,   6.89736795,       -2600.
      4,   5.20781231,       -2600.
      5,   3.94092321,       -2600.
      6,   2.99096465,       -2600.
      7,   2.27865171,       -2600.
      8,   1.74453425,       -2600.
      9,   1.34403396,       -2600.
     10,   1.04372454,       -2600.
     11,  0.818541765,       -2600.
     12,  0.649691761,       -2600.
     13,  0.523082018,       -2600.
     14,  0.428145498,       -2600.
     15,  0.356958717,       -2600.
     16,  0.303580344,       -2600.
     17,  0.263555348,       -2600.
     18,  0.233543172,       -2600.
     19,  0.211038962,       -2600.
     20,  0.194164515,       -2600.
** ... 580 like lines cut
*Element, type=CAX4
  1,   1,   2,  27,  26
  2,   2,   3,  28,  27
  3,   3,   4,  29,  28
  4,   4,   5,  30,  29
  5,   5,   6,  31,  30
  6,   6,   7,  32,  31
  7,   7,   8,  33,  32
  8,   8,   9,  34,  33
  9,   9,  10,  35,  34
 10,  10,  11,  36,  35
 11,  11,  12,  37,  36
 12,  12,  13,  38,  37
 13,  13,  14,  39,  38
 14,  14,  15,  40,  39
 15,  15,  16,  41,  40
 16,  16,  17,  42,  41
 17,  17,  18,  43,  42
 18,  18,  19,  44,  43
 19,  19,  20,  45,  44
 20,  20,  21,  46,  45
** ... 532 like lines cut
*Node
    601,           0.,       -2600.,           0.
*Nset, nset=ROCK_INST-RefPt_, internal
601, 
*Nset, nset=RP_TOP_2600
 601,
*Nset, nset=ALLROCK, generate
   1,  600,    1
*Elset, elset=ALLROCK, generate
   1,  552,    1
*Nset, nset=FASEI_SLAVE, generate
   1,  600,    1
*Elset, elset=FASEI_SLAVE, generate
   1,  552,    1
*Nset, nset=L1-I_BASE, generate
 576,  600,    1
*Elset, elset=L1-I_BASE, generate
 529,  552,    1
*Nset, nset=L1-I_ID, generate
  25,  600,   25
*Elset, elset=L1-I_ID, generate
  24,  552,   24
*Nset, nset=L1-I_OD, generate
   1,  576,   25
*Elset, elset=L1-I_OD, generate
   1,  529,   24
*Nset, nset=L1-I_TOP, generate
  1,  25,   1
*Elset, elset=L1-I_TOP, generate
  1,  24,   1
*Nset, nset=L1-I, generate
   1,  600,    1
*Elset, elset=L1-I, generate
   1,  552,    1
** Section: LAYER_01_SANDSTONE_Section
*Solid Section, elset=L1-I, material=LAYER_01_SANDSTONE
1.,
*End Instance
**  
*Nset, nset=ALL, instance=FLUID_INST, generate
  1,  96,   1
*Nset, nset=ALL, instance=PIPE_INST, generate
  1,  96,   1
*Nset, nset=ALL, instance=ROCK_INST, generate
   1,  600,    1
*Elset, elset=ALL, instance=FLUID_INST, generate
  1,  69,   1
*Elset, elset=ALL, instance=PIPE_INST, generate
  1,  69,   1
*Elset, elset=ALL, instance=ROCK_INST, generate
   1,  552,    1
*Nset, nset=FASEI, instance=FLUID_INST, generate
  1,  96,   1
*Nset, nset=FASEI, instance=PIPE_INST, generate
  1,  96,   1
*Elset, elset=FASEI, instance=FLUID_INST, generate
  1,  69,   1
*Elset, elset=FASEI, instance=PIPE_INST, generate
  1,  69,   1
*Nset, nset=FASEI_COMPLETED_WELL, instance=PIPE_INST, generate
  4,  96,   4
*Elset, elset=FASEI_COMPLETED_WELL, instance=PIPE_INST, generate
  3,  69,   3
*Nset, nset=FASEI_OPEN_WELL, instance=ROCK_INST, generate
  25,  600,   25
*Elset, elset=FASEI_OPEN_WELL, instance=ROCK_INST, generate
  24,  552,   24
*Nset, nset=FASEI_WELL, instance=ROCK_INST, generate
  25,  600,   25
*Elset, elset=FASEI_WELL, instance=ROCK_INST, generate
  24,  552,   24
*Nset, nset=MESH_TT_ANNULARS, instance=FLUID_INST
  1,  2,  3,  4, 93, 94, 95, 96
*Elset, elset=MESH_TT_ANNULARS, instance=FLUID_INST
  1,  2,  3, 67, 68, 69
*Nset, nset=MESH_TT_PIPES, instance=PIPE_INST
  1,  2,  3,  4, 93, 94, 95, 96
*Elset, elset=MESH_TT_PIPES, instance=PIPE_INST
  1,  2,  3, 67, 68, 69
*Nset, nset=MESH_TT_ROCK, instance=ROCK_INST
   1,   2,   3,   4,   5,   6,   7,   8,   9,  10,  11,  12,  13,  14,  15,  16
  17,  18,  19,  20,  21,  22,  23,  24,  25, 576, 577, 578, 579, 580, 581, 582
 583, 584, 585, 586, 587, 588, 589, 590, 591, 592, 593, 594, 595, 596, 597, 598
 599, 600
*Elset, elset=MESH_TT_ROCK, instance=ROCK_INST
   1,   2,   3,   4,   5,   6,   7,   8,   9,  10,  11,  12,  13,  14,  15,  16
  17,  18,  19,  20,  21,  22,  23,  24, 529, 530, 531, 532, 533, 534, 535, 536
 537, 538, 539, 540, 541, 542, 543, 544, 545, 546, 547, 548, 549, 550, 551, 552
*Nset, nset=MESH_VERTICAL, instance=FLUID_INST
  1,  4,  5,  8,  9, 12, 13, 16, 17, 20, 21, 24, 25, 28, 29, 32
 33, 36, 37, 40, 41, 44, 45, 48, 49, 52, 53, 56, 57, 60, 61, 64
 65, 68, 69, 72, 73, 76, 77, 80, 81, 84, 85, 88, 89, 92, 93, 96
*Nset, nset=MESH_VERTICAL, instance=PIPE_INST
  1,  4,  5,  8,  9, 12, 13, 16, 17, 20, 21, 24, 25, 28, 29, 32
 33, 36, 37, 40, 41, 44, 45, 48, 49, 52, 53, 56, 57, 60, 61, 64
 65, 68, 69, 72, 73, 76, 77, 80, 81, 84, 85, 88, 89, 92, 93, 96
*Nset, nset=MESH_VERTICAL, instance=ROCK_INST
   1,  25,  26,  50,  51,  75,  76, 100, 101, 125, 126, 150, 151, 175, 176, 200
 201, 225, 226, 250, 251, 275, 276, 300, 301, 325, 326, 350, 351, 375, 376, 400
 401, 425, 426, 450, 451, 475, 476, 500, 501, 525, 526, 550, 551, 575, 576, 600
*Elset, elset=MESH_VERTICAL, instance=FLUID_INST
  1,  3,  4,  6,  7,  9, 10, 12, 13, 15, 16, 18, 19, 21, 22, 24
 25, 27, 28, 30, 31, 33, 34, 36, 37, 39, 40, 42, 43, 45, 46, 48
 49, 51, 52, 54, 55, 57, 58, 60, 61, 63, 64, 66, 67, 69
*Elset, elset=MESH_VERTICAL, instance=PIPE_INST
  1,  3,  4,  6,  7,  9, 10, 12, 13, 15, 16, 18, 19, 21, 22, 24
 25, 27, 28, 30, 31, 33, 34, 36, 37, 39, 40, 42, 43, 45, 46, 48
 49, 51, 52, 54, 55, 57, 58, 60, 61, 63, 64, 66, 67, 69
*Elset, elset=MESH_VERTICAL, instance=ROCK_INST
   1,  24,  25,  48,  49,  72,  73,  96,  97, 120, 121, 144, 145, 168, 169, 192
 193, 216, 217, 240, 241, 264, 265, 288, 289, 312, 313, 336, 337, 360, 361, 384
 385, 408, 409, 432, 433, 456, 457, 480, 481, 504, 505, 528, 529, 552
*Nset, nset=ROCK_BC, instance=ROCK_INST, generate
   1,  576,   25
*Elset, elset=ROCK_BC, instance=ROCK_INST, generate
   1,  529,   24
*Nset, nset=ROCK_OUTPUT, instance=ROCK_INST, generate
   1,  600,    1
*Elset, elset=ROCK_OUTPUT, instance=ROCK_INST, generate
   1,  552,    1
*Nset, nset=YSYM_BASE, instance=FLUID_INST, generate
 93,  96,   1
*Nset, nset=YSYM_BASE, instance=PIPE_INST, generate
 93,  96,   1
*Nset, nset=YSYM_BASE, instance=ROCK_INST, generate
 576,  600,    1
*Elset, elset=YSYM_BASE, instance=FLUID_INST, generate
 67,  69,   1
*Elset, elset=YSYM_BASE, instance=PIPE_INST, generate
 67,  69,   1
*Elset, elset=YSYM_BASE, instance=ROCK_INST, generate
 529,  552,    1
*Nset, nset=YSYM_TOP, instance=FLUID_INST, generate
 1,  4,  1
*Nset, nset=YSYM_TOP, instance=PIPE_INST, generate
 1,  4,  1
*Nset, nset=YSYM_TOP, instance=ROCK_INST, generate
  1,  25,   1
*Elset, elset=YSYM_TOP, instance=FLUID_INST, generate
 1,  3,  1
*Elset, elset=YSYM_TOP, instance=PIPE_INST, generate
 1,  3,  1
*Elset, elset=YSYM_TOP, instance=ROCK_INST, generate
  1,  24,   1
*Elset, elset=_FASEI_ANNULAR_S1, internal, instance=FLUID_INST, generate
 1,  3,  1
*Elset, elset=_FASEI_ANNULAR_S2, internal, instance=FLUID_INST, generate
  3,  69,   3
*Elset, elset=_FASEI_ANNULAR_S3, internal, instance=FLUID_INST, generate
 67,  69,   1
*Elset, elset=_FASEI_ANNULAR_S4, internal, instance=FLUID_INST, generate
  1,  67,   3
*Surface, type=ELEMENT, name=FASEI_ANNULAR
_FASEI_ANNULAR_S1, S1
_FASEI_ANNULAR_S2, S2
_FASEI_ANNULAR_S4, S4
_FASEI_ANNULAR_S3, S3
*Elset, elset=_FASEI_COMPLETED_WELL_S2, internal, instance=PIPE_INST, generate
  3,  69,   3
*Surface, type=ELEMENT, name=FASEI_COMPLETED_WELL
_FASEI_COMPLETED_WELL_S2, S2
*Elset, elset=_FASEI_FLUIDO_S2, internal, instance=FLUID_INST, generate
  3,  69,   3
*Elset, elset=_FASEI_FLUIDO_S4, internal, instance=FLUID_INST, generate
  1,  67,   3
*Surface, type=ELEMENT, name=FASEI_FLUIDO
_FASEI_FLUIDO_S2, S2
_FASEI_FLUIDO_S4, S4
*Elset, elset=_FASEI_MASTER_S4, internal, instance=PIPE_INST, generate
  1,  67,   3
*Surface, type=ELEMENT, name=FASEI_MASTER
_FASEI_MASTER_S4, S4
*Elset, elset=_FASEI_OPEN_WELL_S2, internal, instance=ROCK_INST, generate
  24,  552,   24
*Surface, type=ELEMENT, name=FASEI_OPEN_WELL
_FASEI_OPEN_WELL_S2, S2
*Elset, elset=_FASEI_REV_S1, internal, instance=PIPE_INST, generate
 1,  3,  1
*Elset, elset=_FASEI_REV_S2, internal, instance=PIPE_INST, generate
  3,  69,   3
*Elset, elset=_FASEI_REV_S3, internal, instance=PIPE_INST, generate
 67,  69,   1
*Elset, elset=_FASEI_REV_S4, internal, instance=PIPE_INST, generate
  1,  67,   3
*Surface, type=ELEMENT, name=FASEI_REV
_FASEI_REV_S1, S1
_FASEI_REV_S2, S2
_FASEI_REV_S4, S4
_FASEI_REV_S3, S3
*Elset, elset=_FASEI_WELL_S2, internal, instance=ROCK_INST, generate
  24,  552,   24
*Surface, type=ELEMENT, name=FASEI_WELL
_FASEI_WELL_S2, S2
*Surface, type=NODE, name=ROCK_INST_FASEI_SLAVE_CNS_, internal
ROCK_INST.FASEI_SLAVE, 1.
*End Assembly
** 
** MATERIALS
** 
*Material, name=FLUID
*Conductivity
 0.702,
*Density
1.,
*Elastic
10000.,0.
*Specific Heat
 8.61904e+06,
*Material, name=LAYER_01_SANDSTONE
*Conductivity
 1.869,
*Density
2300.,
*Elastic
 2.4062e+10, 0.25
*Expansion
 1e-05,
*Specific Heat
 878.414,
*Mohr Coulomb
30., 7.5
*Mohr Coulomb Hardening
 2.00017e+07,0.
*Material, name=STEEL
*Conductivity
 45.3452,
*Density
7935.,
*Elastic
 2.06843e+11, 0.3
*Expansion
 0.0001242,
*Specific Heat
 1.92841e+06,
** 
** INTERACTION PROPERTIES
** 
*Surface Interaction, name=C_FASEI
1.,
*Friction, slip tolerance=0.005
 0.5,
*Surface Behavior, pressure-overclosure=HARD
*Time Points, name=timePoint
1., 3600., 7200., 14400., 28800., 57600., 86400., 172800.
345600., 691200., 1.3824e+06, 2.7648e+06, 5.5296e+06, 1.10592e+07, 2.21184e+07, 3.1536e+07
6.3072e+07, 1.26144e+08, 2.52288e+08, 5.04576e+08, 9.4608e+08
** 
** PHYSICAL CONSTANTS
** 
*Physical Constants, absolute zero=0., stefan boltzmann=5.67037e-08
** 
** BOUNDARY CONDITIONS
** 
** Name: FIX_FASEI_WELL Type: Symmetry/Antisymmetry/Encastre
*Boundary
FASEI_OPEN_WELL, XSYMM
** Name: PIN_FASEI Type: Symmetry/Antisymmetry/Encastre
*Boundary
PIPE_INST.FASEI_REV, PINNED
** Name: XSYM_ROCK_BC Type: Symmetry/Antisymmetry/Encastre
*Boundary
ROCK_BC, XSYMM
** Name: YSYM_BASE Type: Symmetry/Antisymmetry/Encastre
*Boundary
YSYM_BASE, YSYMM
** Name: YSYM_TOP Type: Symmetry/Antisymmetry/Encastre
*Boundary
YSYM_TOP, YSYMM
** 
** PREDEFINED FIELDS
** 
** Name: S_FASEI_REV   Type: Geostatic stress
*Initial Conditions, type=STRESS, GEOSTATIC
PIPE_INST.FASEI_REV, 1.5478e+08, -2600., 8.47216e+07, -3500., 0., 0.
** Name: S_L1-I   Type: Geostatic stress
*Initial Conditions, type=STRESS, GEOSTATIC
ROCK_INST.L1-I, -3.35192e+07, -2600., -5.38253e+07, -3500., 1., 1.
** 
** INTERACTIONS
** 
** Interaction: C_FASEI
*Contact Pair, interaction=C_FASEI, type=SURFACE TO SURFACE
ROCK_INST_FASEI_SLAVE_CNS_, FASEI_MASTER
** ----------------------------------------------------------------
** 
** STEP: Geostatic
** 
*Step, name=Geostatic, nlgeom=YES
*Geostatic
** 
** LOADS
** 
** Name: GRAVITY   Type: Gravity
*Dload
, GRAV, 9.81, , -1.
** 
** INTERACTIONS
** 
** Interaction: C_FASEI
*Model Change, type=CONTACT PAIR, remove
ROCK_INST_FASEI_SLAVE_CNS_, FASEI_MASTER
** Interaction: MC_FASEI_FLUIDO
*Model Change, remove
FLUID_INST.FASEI_FLUIDO, 
** Interaction: MC_FASEI_REV
*Model Change, remove
PIPE_INST.FASEI_REV, 
** 
** OUTPUT REQUESTS
** 
*Restart, write, frequency=0
** 
** FIELD OUTPUT: FASEI_REV
** 
*Output, field
*Node Output, nset=PIPE_INST.FASEI_REV
NT, U
*Element Output, elset=PIPE_INST.FASEI_REV, directions=YES
E, MISES, PE, S, PEEQ
** 
** FIELD OUTPUT: ROCK_OUTPUT
** 
*Node Output, nset=ROCK_OUTPUT
U, 
*Element Output, elset=ROCK_OUTPUT, directions=YES
TEMP, 
*Output, history, frequency=0
*End Step
** ----------------------------------------------------------------
** 
** STEP: Transition
** 
*Step, name=Transition, nlgeom=YES
*Static
1., 2., 2e-05, 2.
** 
** OUTPUT REQUESTS
** 
*Restart, write, frequency=0
** 
** FIELD OUTPUT: FASEI_REV
** 
*Output, field, time points=timePoint
*Node Output, nset=PIPE_INST.FASEI_REV
NT, U
*Element Output, elset=PIPE_INST.FASEI_REV, directions=YES
E, MISES, PE, S, PEEQ
** 
** FIELD OUTPUT: ROCK_OUTPUT
** 
*Node Output, nset=ROCK_OUTPUT
U, 
*Element Output, elset=ROCK_OUTPUT, directions=YES
TEMP, 
*Output, history, frequency=0
*End Step
** ----------------------------------------------------------------
** 
** STEP: TempDefine
** 
*Step, name=TempDefine, nlgeom=YES
*Static
1., 3., 3e-05, 3.
** 
** PREDEFINED FIELDS
** 
** Name: NT_FASEI   Type: Temperature Using Field: Geotermico
*Temperature
FLUID_INST.1, 289.992
FLUID_INST.2, 289.992
FLUID_INST.3, 289.992
FLUID_INST.4, 289.992
FLUID_INST.5, 290.791
FLUID_INST.6, 290.791
FLUID_INST.7, 290.791
FLUID_INST.8, 290.791
FLUID_INST.9, 291.59
FLUID_INST.10, 291.59
FLUID_INST.11, 291.59
FLUID_INST.12, 291.59
FLUID_INST.13, 292.443
FLUID_INST.14, 292.443
FLUID_INST.15, 292.443
FLUID_INST.16, 292.443
FLUID_INST.17, 293.295
FLUID_INST.18, 293.295
FLUID_INST.19, 293.295
FLUID_INST.20, 293.295
** ... 76 like lines cut
PIPE_INST.1, 289.992
PIPE_INST.2, 289.992
PIPE_INST.3, 289.992
PIPE_INST.4, 289.992
PIPE_INST.5, 290.791
PIPE_INST.6, 290.791
PIPE_INST.7, 290.791
PIPE_INST.8, 290.791
PIPE_INST.9, 291.59
PIPE_INST.10, 291.59
PIPE_INST.11, 291.59
PIPE_INST.12, 291.59
PIPE_INST.13, 292.443
PIPE_INST.14, 292.443
PIPE_INST.15, 292.443
PIPE_INST.16, 292.443
PIPE_INST.17, 293.295
PIPE_INST.18, 293.295
PIPE_INST.19, 293.295
PIPE_INST.20, 293.295
** ... 76 like lines cut
** Name: NT_FASEI_ID   Type: Temperature Using Field: Geotermico
*Temperature
PIPE_INST.4, 289.992
PIPE_INST.8, 290.791
PIPE_INST.12, 291.59
PIPE_INST.16, 292.443
PIPE_INST.20, 293.295
PIPE_INST.24, 294.095
PIPE_INST.28, 294.947
PIPE_INST.32, 295.8
PIPE_INST.36, 296.599
PIPE_INST.40, 297.452
PIPE_INST.44, 298.304
PIPE_INST.48, 299.104
PIPE_INST.52, 299.956
PIPE_INST.56, 300.756
PIPE_INST.60, 301.608
PIPE_INST.64, 302.461
PIPE_INST.68, 303.26
PIPE_INST.72, 304.113
PIPE_INST.76, 304.965
PIPE_INST.80, 305.765
** ... 4 like lines cut
** Name: NT_L1-I   Type: Temperature Using Field: NT_L1-I
*Temperature
ROCK_INST.1, 289.977
ROCK_INST.2, 289.977
ROCK_INST.3, 289.977
ROCK_INST.4, 289.977
ROCK_INST.5, 289.977
ROCK_INST.6, 289.977
ROCK_INST.7, 289.977
ROCK_INST.8, 289.977
ROCK_INST.9, 289.977
ROCK_INST.10, 289.977
ROCK_INST.11, 289.977
ROCK_INST.12, 289.977
ROCK_INST.13, 289.977
ROCK_INST.14, 289.977
ROCK_INST.15, 289.977
ROCK_INST.16, 289.977
ROCK_INST.17, 289.977
ROCK_INST.18, 289.977
ROCK_INST.19, 289.977
ROCK_INST.20, 289.977
** ... 580 like lines cut
** Name: NT_L1-I_OD   Type: Temperature Using Field: NT_L1-I
*Temperature
ROCK_INST.1, 289.977
ROCK_INST.26, 290.811
ROCK_INST.51, 291.645
ROCK_INST.76, 292.48
ROCK_INST.101, 293.314
ROCK_INST.126, 294.148
ROCK_INST.151, 294.982
ROCK_INST.176, 295.816
ROCK_INST.201, 296.65
ROCK_INST.226, 297.484
ROCK_INST.251, 298.319
ROCK_INST.276, 299.153
ROCK_INST.301, 299.987
ROCK_INST.326, 300.821
ROCK_INST.351, 301.655
ROCK_INST.376, 302.489
ROCK_INST.401, 303.324
ROCK_INST.426, 304.158
ROCK_INST.451, 304.992
ROCK_INST.476, 305.826
** ... 4 like lines cut
** 
** OUTPUT REQUESTS
** 
*Restart, write, frequency=0
** 
** FIELD OUTPUT: FASEI_REV
** 
*Output, field, time points=timePoint
*Node Output, nset=PIPE_INST.FASEI_REV
NT, U
*Element Output, elset=PIPE_INST.FASEI_REV, directions=YES
E, MISES, PE, S, PEEQ
** 
** FIELD OUTPUT: ROCK_OUTPUT
** 
*Node Output, nset=ROCK_OUTPUT
U, 
*Element Output, elset=ROCK_OUTPUT, directions=YES
TEMP, 
*Output, history, frequency=0
*End Step
** ----------------------------------------------------------------
** 
** STEP: Perf_10_375
** 
*Step, name=Perf_10_375, nlgeom=YES
*Static
1., 1., 1e-05, 1.
** 
** BOUNDARY CONDITIONS
** 
** Name: FIX_FASEI_WELL Type: Symmetry/Antisymmetry/Encastre
*Boundary, op=NEW
** Name: PIN_FASEI Type: Symmetry/Antisymmetry/Encastre
*Boundary, op=NEW
PIPE_INST.FASEI_REV, PINNED
** Name: XSYM_ROCK_BC Type: Symmetry/Antisymmetry/Encastre
*Boundary, op=NEW
ROCK_BC, XSYMM
** Name: YSYM_BASE Type: Symmetry/Antisymmetry/Encastre
*Boundary, op=NEW
YSYM_BASE, YSYMM
** Name: YSYM_TOP Type: Symmetry/Antisymmetry/Encastre
*Boundary, op=NEW
YSYM_TOP, YSYMM
** 
** LOADS
** 
** Name: P_FASEI_OPEN_WELL   Type: Pressure Using Field: P_FASEI_OPEN_WELL
*Dload
ROCK_INST.24, P2, 2.61739e+07
ROCK_INST.48, P2, 2.65649e+07
ROCK_INST.72, P2, 2.69558e+07
ROCK_INST.96, P2, 2.73468e+07
ROCK_INST.120, P2, 2.77378e+07
ROCK_INST.144, P2, 2.81288e+07
ROCK_INST.168, P2, 2.85198e+07
ROCK_INST.192, P2, 2.89107e+07
ROCK_INST.216, P2, 2.93017e+07
ROCK_INST.240, P2, 2.96927e+07
ROCK_INST.264, P2, 3.00837e+07
ROCK_INST.288, P2, 3.04747e+07
ROCK_INST.312, P2, 3.08656e+07
ROCK_INST.336, P2, 3.12566e+07
ROCK_INST.360, P2, 3.16476e+07
ROCK_INST.384, P2, 3.20386e+07
ROCK_INST.408, P2, 3.24296e+07
ROCK_INST.432, P2, 3.28205e+07
ROCK_INST.456, P2, 3.32115e+07
ROCK_INST.480, P2, 3.36025e+07
ROCK_INST.504, P2, 3.39935e+07
ROCK_INST.528, P2, 3.43844e+07
ROCK_INST.552, P2, 3.47754e+07
** 
** OUTPUT REQUESTS
** 
*Restart, write, frequency=0
** 
** FIELD OUTPUT: FASEI_REV
** 
*Output, field, time points=timePoint
*Node Output, nset=PIPE_INST.FASEI_REV
NT, U
*Element Output, elset=PIPE_INST.FASEI_REV, directions=YES
E, MISES, PE, S, PEEQ
** 
** FIELD OUTPUT: ROCK_OUTPUT
** 
*Node Output, nset=ROCK_OUTPUT
U, 
*Element Output, elset=ROCK_OUTPUT, directions=YES
TEMP, 
*Output, history, frequency=0
*End Step
** ----------------------------------------------------------------
** 
** STEP: Perf_10_375_Creep
** 
*Step, name=Perf_10_375_Creep, nlgeom=YES, inc=1000000
*Visco, cetol=0.01
1., 172800., 1e-15, 172800.
** 
** OUTPUT REQUESTS
** 
*Restart, write, frequency=0
** 
** FIELD OUTPUT: FASEI_REV
** 
*Output, field, time points=timePoint
*Node Output, nset=PIPE_INST.FASEI_REV
NT, U
*Element Output, elset=PIPE_INST.FASEI_REV, directions=YES
E, MISES, PE, S, PEEQ
** 
** FIELD OUTPUT: ROCK_OUTPUT
** 
*Node Output, nset=ROCK_OUTPUT
U, 
*Element Output, elset=ROCK_OUTPUT, directions=YES
TEMP, 
*Output, history, frequency=0
*End Step
** ----------------------------------------------------------------
** 
** STEP: Rev_9_875
** 
*Step, name=Rev_9_875, nlgeom=YES
*Static
1., 1., 1e-15, 1.
** 
** BOUNDARY CONDITIONS
** 
** Name: PIN_FASEI Type: Symmetry/Antisymmetry/Encastre
*Boundary, op=NEW
** Name: XSYM_ROCK_BC Type: Symmetry/Antisymmetry/Encastre
*Boundary, op=NEW
ROCK_BC, XSYMM
** Name: YSYM_BASE Type: Symmetry/Antisymmetry/Encastre
*Boundary, op=NEW
YSYM_BASE, YSYMM
** Name: YSYM_TOP Type: Symmetry/Antisymmetry/Encastre
*Boundary, op=NEW
YSYM_TOP, YSYMM
** 
** LOADS
** 
** Name: GRAVITY   Type: Gravity
*Dload, op=NEW
, GRAV, 9.81, , -1.
** Name: P_FASEI_COMPLETED_WELL   Type: Pressure Using Field: P_FASEI_COMPLETED_WELL
*Dload, op=NEW
PIPE_INST.3, P2, 2.61739e+07
PIPE_INST.6, P2, 2.65649e+07
PIPE_INST.9, P2, 2.69558e+07
PIPE_INST.12, P2, 2.73468e+07
PIPE_INST.15, P2, 2.77378e+07
PIPE_INST.18, P2, 2.81288e+07
PIPE_INST.21, P2, 2.85198e+07
PIPE_INST.24, P2, 2.89107e+07
PIPE_INST.27, P2, 2.93017e+07
PIPE_INST.30, P2, 2.96927e+07
PIPE_INST.33, P2, 3.00837e+07
PIPE_INST.36, P2, 3.04747e+07
PIPE_INST.39, P2, 3.08656e+07
PIPE_INST.42, P2, 3.12566e+07
PIPE_INST.45, P2, 3.16476e+07
PIPE_INST.48, P2, 3.20386e+07
PIPE_INST.51, P2, 3.24296e+07
PIPE_INST.54, P2, 3.28205e+07
PIPE_INST.57, P2, 3.32115e+07
PIPE_INST.60, P2, 3.36025e+07
PIPE_INST.63, P2, 3.39935e+07
PIPE_INST.66, P2, 3.43844e+07
PIPE_INST.69, P2, 3.47754e+07
** Name: P_FASEI_FLUID   Type: Pressure Using Field: P_FASEI_FLUID
*Dload, op=NEW
FLUID_INST.3, P2, -2.61739e+07
FLUID_INST.6, P2, -2.65649e+07
FLUID_INST.9, P2, -2.69558e+07
FLUID_INST.12, P2, -2.73468e+07
FLUID_INST.15, P2, -2.77378e+07
FLUID_INST.18, P2, -2.81288e+07
FLUID_INST.21, P2, -2.85198e+07
FLUID_INST.24, P2, -2.89107e+07
FLUID_INST.27, P2, -2.93017e+07
FLUID_INST.30, P2, -2.96927e+07
FLUID_INST.33, P2, -3.00837e+07
FLUID_INST.36, P2, -3.04747e+07
FLUID_INST.39, P2, -3.08656e+07
FLUID_INST.42, P2, -3.12566e+07
FLUID_INST.45, P2, -3.16476e+07
FLUID_INST.48, P2, -3.20386e+07
FLUID_INST.51, P2, -3.24296e+07
FLUID_INST.54, P2, -3.28205e+07
FLUID_INST.57, P2, -3.32115e+07
FLUID_INST.60, P2, -3.36025e+07
** ... 26 like lines cut
** Name: P_FASEI_OPEN_WELL   Type: Pressure Using Field: P_FASEI_OPEN_WELL
*Dload, op=NEW
** 
** INTERACTIONS
** 
** Interaction: C_FASEI
*Model Change, type=CONTACT PAIR, add
ROCK_INST_FASEI_SLAVE_CNS_, FASEI_MASTER
** Interaction: MC_FASEI_REV
*Model Change, add
PIPE_INST.FASEI_REV, 
** 
** OUTPUT REQUESTS
** 
*Restart, write, frequency=0
** 
** FIELD OUTPUT: FASEI_REV
** 
*Output, field, time points=timePoint
*Node Output, nset=PIPE_INST.FASEI_REV
NT, U
*Element Output, elset=PIPE_INST.FASEI_REV, directions=YES
E, MISES, PE, S, PEEQ
** 
** FIELD OUTPUT: ROCK_OUTPUT
** 
*Node Output, nset=ROCK_OUTPUT
U, 
*Element Output, elset=ROCK_OUTPUT, directions=YES
TEMP, 
*Output, history, frequency=0
*End Step
** ----------------------------------------------------------------
** 
** STEP: Rev_9_875_Creep
** 
*Step, name=Rev_9_875_Creep, nlgeom=YES, inc=1000000
*Visco, cetol=0.01
1., 9.4608e+08, 1e-15, 1.5552e+07
** 
** OUTPUT REQUESTS
** 
*Restart, write, frequency=0
** 
** FIELD OUTPUT: FASEI_REV
** 
*Output, field, time points=timePoint
*Node Output, nset=PIPE_INST.FASEI_REV
NT, U
*Element Output, elset=PIPE_INST.FASEI_REV, directions=YES
E, MISES, PE, S, PEEQ
** 
** FIELD OUTPUT: ROCK_OUTPUT
** 
*Node Output, nset=ROCK_OUTPUT
U, 
*Element Output, elset=ROCK_OUTPUT, directions=YES
TEMP, 
*Output, history, frequency=0
*End Step
