*Heading
** Job name: WellClosureJob Model name: MyFirstModel
** Generated by: Abaqus/CAE 2024
*Preprint, echo=NO, model=NO, history=NO, contact=NO
**
** PARTS
**
*Part, name=FLUID
*End Part
**  
*Part, name=PIPE
*End Part
**  
*Part, name=ROCK
*End Part
**  
**
** ASSEMBLY
**
*Assembly, name=Assembly
**  
*Instance, name=FLUID_INST, part=FLUID
*Node
      1,  0.155575007,       -3700.
      2,  0.150678098,       -3700.
      3,  0.145781189,       -3700.
      4,   0.14088428,       -3700.
      5,  0.155575007,       -3740.
      6,  0.150678098,       -3740.
      7,  0.145781189,       -3740.
      8,   0.14088428,       -3740.
      9,  0.155575007,       -3780.
     10,  0.150678098,       -3780.
     11,  0.145781189,       -3780.
     12,   0.14088428,       -3780.
     13,  0.155575007,       -3820.
     14,  0.150678098,       -3820.
     15,  0.145781189,       -3820.
     16,   0.14088428,       -3820.
     17,  0.155575007,       -3860.
     18,  0.150678098,       -3860.
     19,  0.145781189,       -3860.
     20,   0.14088428,       -3860.
** ... 24 like lines cut
*Element, type=CAX4
 1,  1,  2,  6,  5
 2,  2,  3,  7,  6
 3,  3,  4,  8,  7
 4,  5,  6, 10,  9
 5,  6,  7, 11, 10
 6,  7,  8, 12, 11
 7,  9, 10, 14, 13
 8, 10, 11, 15, 14
 9, 11, 12, 16, 15
10, 13, 14, 18, 17
11, 14, 15, 19, 18
12, 15, 16, 20, 19
13, 17, 18, 22, 21
14, 18, 19, 23, 22
15, 19, 20, 24, 23
16, 21, 22, 26, 25
17, 22, 23, 27, 26
18, 23, 24, 28, 27
19, 25, 26, 30, 29
20, 26, 27, 31, 30
** ... 10 like lines cut
*Nset, nset=FASEI_FLUIDO, generate
  1,  44,   1
*Elset, elset=FASEI_FLUIDO, generate
  1,  30,   1
*Nset, nset=FASEI_FLUIDO_BASE, generate
 41,  44,   1
*Elset, elset=FASEI_FLUIDO_BASE, generate
 28,  30,   1
*Nset, nset=FASEI_FLUIDO_ID, generate
  4,  44,   4
*Elset, elset=FASEI_FLUIDO_ID, generate
  3,  30,   3
*Nset, nset=FASEI_FLUIDO_OD, generate
  1,  41,   4
*Elset, elset=FASEI_FLUIDO_OD, generate
  1,  28,   3
*Nset, nset=FASEI_FLUIDO_TOP, generate
 1,  4,  1
*Elset, elset=FASEI_FLUIDO_TOP, generate
 1,  3,  1
*Nset, nset=FASEI_ANNULAR, generate
  1,  44,   1
*Elset, elset=FASEI_ANNULAR, generate
  1,  30,   1
*Nset, nset=FASEI_ANNULAR_BASE, generate
 41,  44,   1
*Elset, elset=FASEI_ANNULAR_BASE, generate
 28,  30,   1
*Nset, nset=FASEI_ANNULAR_ID, generate
  4,  44,   4
*Elset, elset=FASEI_ANNULAR_ID, generate
  3,  30,   3
*Nset, nset=FASEI_ANNULAR_OD, generate
  1,  41,   4
*Elset, elset=FASEI_ANNULAR_OD, generate
  1,  28,   3
*Nset, nset=FASEI_ANNULAR_TOP, generate
 1,  4,  1
*Elset, elset=FASEI_ANNULAR_TOP, generate
 1,  3,  1
*Nset, nset=FASEI_ANNULAR_TT
  1,  2,  3,  4, 41, 42, 43, 44
*Elset, elset=FASEI_ANNULAR_TT
  1,  2,  3, 28, 29, 30
** Section: FLUID_Section
*Solid Section, elset=FASEI_FLUIDO, material=FLUID
1.,
*End Instance
**  
*Instance, name=PIPE_INST, part=PIPE
*Node
      1,   0.14088428,       -3700.
      2,   0.13559261,       -3700.
      3,  0.130300939,       -3700.
      4,  0.125009269,       -3700.
      5,   0.14088428,       -3740.
      6,   0.13559261,       -3740.
      7,  0.130300939,       -3740.
      8,  0.125009269,       -3740.
      9,   0.14088428,       -3780.
     10,   0.13559261,       -3780.
     11,  0.130300939,       -3780.
     12,  0.125009269,       -3780.
     13,   0.14088428,       -3820.
     14,   0.13559261,       -3820.
     15,  0.130300939,       -3820.
     16,  0.125009269,       -3820.
     17,   0.14088428,       -3860.
     18,   0.13559261,       -3860.
     19,  0.130300939,       -3860.
     20,  0.125009269,       -3860.
** ... 24 like lines cut
*Element, type=CAX4
 1,  1,  2,  6,  5
 2,  2,  3,  7,  6
 3,  3,  4,  8,  7
 4,  5,  6, 10,  9
 5,  6,  7, 11, 10
 6,  7,  8, 12, 11
 7,  9, 10, 14, 13
 8, 10, 11, 15, 14
 9, 11, 12, 16, 15
10, 13, 14, 18, 17
11, 14, 15, 19, 18
12, 15, 16, 20, 19
13, 17, 18, 22, 21
14, 18, 19, 23, 22
15, 19, 20, 24, 23
16, 21, 22, 26, 25
17, 22, 23, 27, 26
18, 23, 24, 28, 27
19, 25, 26, 30, 29
20, 26, 27, 31, 30
** ... 10 like lines cut
*Nset, nset=FASEI_REV, generate
  1,  44,   1
*Elset, elset=FASEI_REV, generate
  1,  30,   1
*Nset, nset=FASEI_REV_ABOVE_TOC, generate
  1,  44,   1
*Elset, elset=FASEI_REV_ABOVE_TOC, generate
  1,  30,   1
*Nset, nset=FASEI_REV_BASE, generate
 41,  44,   1
*Elset, elset=FASEI_REV_BASE, generate
 28,  30,   1
*Nset, nset=FASEI_REV_ID, generate
  4,  44,   4
*Elset, elset=FASEI_REV_ID, generate
  3,  30,   3
*Nset, nset=FASEI_REV_OD, generate
  1,  41,   4
*Elset, elset=FASEI_REV_OD, generate
  1,  28,   3
*Nset, nset=FASEI_REV_TOP, generate
 1,  4,  1
*Elset, elset=FASEI_REV_TOP, generate
 1,  3,  1
*Nset, nset=FASEI_REV_TT
  1,  2,  3,  4, 41, 42, 43, 44
*Elset, elset=FASEI_REV_TT
  1,  2,  3, 28, 29, 30
** Section: STEEL_Section
*Solid Section, elset=FASEI_REV, material=STEEL
1.,
*End Instance
**  
*Instance, name=ROCK_INST, part=ROCK
*Node
      1,   12.1555748,       -3700.
      2,   9.15060329,       -3700.
      3,   6.89736795,       -3700.
      4,   5.20781231,       -3700.
      5,   3.94092321,       -3700.
      6,   2.99096465,       -3700.
      7,   2.27865171,       -3700.
      8,   1.74453425,       -3700.
      9,   1.34403396,       -3700.
     10,   1.04372454,       -3700.
     11,  0.818541765,       -3700.
     12,  0.649691761,       -3700.
     13,  0.523082018,       -3700.
     14,  0.428145498,       -3700.
     15,  0.356958717,       -3700.
     16,  0.303580344,       -3700.
     17,  0.263555348,       -3700.
     18,  0.233543172,       -3700.
     19,  0.211038962,       -3700.
     20,  0.194164515,       -3700.
** ... 255 like lines cut
*Element, type=CAX4
  1,   1,   2,  27,  26
  2,   2,   3,  28,  27
  3,   3,   4,  29,  28
  4,   4,   5,  30,  29
  5,   5,   6,  31,  30
  6,   6,   7,  32,  31
  7,   7,   8,  33,  32
  8,   8,   9,  34,  33
  9,   9,  10,  35,  34
 10,  10,  11,  36,  35
 11,  11,  12,  37,  36
 12,  12,  13,  38,  37
 13,  13,  14,  39,  38
 14,  14,  15,  40,  39
 15,  15,  16,  41,  40
 16,  16,  17,  42,  41
 17,  17,  18,  43,  42
 18,  18,  19,  44,  43
 19,  19,  20,  45,  44
 20,  20,  21,  46,  45
** ... 220 like lines cut
*Node
    276,           0.,       -3700.,           0.
*Nset, nset=ROCK_INST-RefPt_, internal
276, 
*Nset, nset=RP_TOP_3700
 276,
*Nset, nset=ALLROCK, generate
   1,  275,    1
*Elset, elset=ALLROCK, generate
   1,  240,    1
*Nset, nset=FASEI_SLAVE, generate
   1,  275,    1
*Elset, elset=FASEI_SLAVE, generate
   1,  240,    1
*Nset, nset=L1-I_BASE, generate
 251,  275,    1
*Elset, elset=L1-I_BASE, generate
 217,  240,    1
*Nset, nset=L1-I_ID, generate
  25,  275,   25
*Elset, elset=L1-I_ID, generate
  24,  240,   24
*Nset, nset=L1-I_OD, generate
   1,  251,   25
*Elset, elset=L1-I_OD, generate
   1,  217,   24
*Nset, nset=L1-I_TOP, generate
  1,  25,   1
*Elset, elset=L1-I_TOP, generate
  1,  24,   1
*Nset, nset=L1-I, generate
   1,  275,    1
*Elset, elset=L1-I, generate
   1,  240,    1
** Section: LAYER_01_HALITE_Section
*Solid Section, elset=L1-I, material=LAYER_01_HALITE
1.,
*End Instance
**  
*Nset, nset=ALL, instance=FLUID_INST, generate
  1,  44,   1
*Nset, nset=ALL, instance=PIPE_INST, generate
  1,  44,   1
*Nset, nset=ALL, instance=ROCK_INST, generate
   1,  275,    1
*Elset, elset=ALL, instance=FLUID_INST, generate
  1,  30,   1
*Elset, elset=ALL, instance=PIPE_INST, generate
  1,  30,   1
*Elset, elset=ALL, instance=ROCK_INST, generate
   1,  240,    1
*Nset, nset=FASEI, instance=FLUID_INST, generate
  1,  44,   1
*Nset, nset=FASEI, instance=PIPE_INST, generate
  1,  44,   1
*Elset, elset=FASEI, instance=FLUID_INST, generate
  1,  30,   1
*Elset, elset=FASEI, instance=PIPE_INST, generate
  1,  30,   1
*Nset, nset=FASEI_COMPLETED_WELL, instance=PIPE_INST, generate
  4,  44,   4
*Elset, elset=FASEI_COMPLETED_WELL, instance=PIPE_INST, generate
  3,  30,   3
*Nset, nset=FASEI_OPEN_WELL, instance=ROCK_INST, generate
  25,  275,   25
*Elset, elset=FASEI_OPEN_WELL, instance=ROCK_INST, generate
  24,  240,   24
*Nset, nset=FASEI_WELL, instance=ROCK_INST, generate
  25,  275,   25
*Elset, elset=FASEI_WELL, instance=ROCK_INST, generate
  24,  240,   24
*Nset, nset=MESH_TT_ANNULARS, instance=FLUID_INST
  1,  2,  3,  4, 41, 42, 43, 44
*Elset, elset=MESH_TT_ANNULARS, instance=FLUID_INST
  1,  2,  3, 28, 29, 30
*Nset, nset=MESH_TT_PIPES, instance=PIPE_INST
  1,  2,  3,  4, 41, 42, 43, 44
*Elset, elset=MESH_TT_PIPES, instance=PIPE_INST
  1,  2,  3, 28, 29, 30
*Nset, nset=MESH_TT_ROCK, instance=ROCK_INST
   1,   2,   3,   4,   5,   6,   7,   8,   9,  10,  11,  12,  13,  14,  15,  16
  17,  18,  19,  20,  21,  22,  23,  24,  25, 251, 252, 253, 254, 255, 256, 257
 258, 259, 260, 261, 262, 263, 264, 265, 266, 267, 268, 269, 270, 271, 272, 273
 274, 275
*Elset, elset=MESH_TT_ROCK, instance=ROCK_INST
   1,   2,   3,   4,   5,   6,   7,   8,   9,  10,  11,  12,  13,  14,  15,  16
  17,  18,  19,  20,  21,  22,  23,  24, 217, 218, 219, 220, 221, 222, 223, 224
 225, 226, 227, 228, 229, 230, 231, 232, 233, 234, 235, 236, 237, 238, 239, 240
*Nset, nset=MESH_VERTICAL, instance=FLUID_INST
  1,  4,  5,  8,  9, 12, 13, 16, 17, 20, 21, 24, 25, 28, 29, 32
 33, 36, 37, 40, 41, 44
*Nset, nset=MESH_VERTICAL, instance=PIPE_INST
  1,  4,  5,  8,  9, 12, 13, 16, 17, 20, 21, 24, 25, 28, 29, 32
 33, 36, 37, 40, 41, 44
*Nset, nset=MESH_VERTICAL, instance=ROCK_INST
   1,  25,  26,  50,  51,  75,  76, 100, 101, 125, 126, 150, 151, 175, 176, 200
 201, 225, 226, 250, 251, 275
*Elset, elset=MESH_VERTICAL, instance=FLUID_INST
  1,  3,  4,  6,  7,  9, 10, 12, 13, 15, 16, 18, 19, 21, 22, 24
 25, 27, 28, 30
*Elset, elset=MESH_VERTICAL, instance=PIPE_INST
  1,  3,  4,  6,  7,  9, 10, 12, 13, 15, 16, 18, 19, 21, 22, 24
 25, 27, 28, 30
*Elset, elset=MESH_VERTICAL, instance=ROCK_INST
   1,  24,  25,  48,  49,  72,  73,  96,  97, 120, 121, 144, 145, 168, 169, 192
 193, 216, 217, 240
*Nset, nset=ROCK_BC, instance=ROCK_INST, generate
   1,  251,   25
*Elset, elset=ROCK_BC, instance=ROCK_INST, generate
   1,  217,   24
*Nset, nset=ROCK_OUTPUT, instance=ROCK_INST, generate
   1,  275,    1
*Elset, elset=ROCK_OUTPUT, instance=ROCK_INST, generate
   1,  240,    1
*Nset, nset=YSYM_BASE, instance=FLUID_INST, generate
 41,  44,   1
*Nset, nset=YSYM_BASE, instance=PIPE_INST, generate
 41,  44,   1
*Nset, nset=YSYM_BASE, instance=ROCK_INST, generate
 251,  275,    1
*Elset, elset=YSYM_BASE, instance=FLUID_INST, generate
 28,  30,   1
*Elset, elset=YSYM_BASE, instance=PIPE_INST, generate
 28,  30,   1
*Elset, elset=YSYM_BASE, instance=ROCK_INST, generate
 217,  240,    1
*Nset, nset=YSYM_TOP, instance=FLUID_INST, generate
 1,  4,  1
*Nset, nset=YSYM_TOP, instance=PIPE_INST, generate
 1,  4,  1
*Nset, nset=YSYM_TOP, instance=ROCK_INST, generate
  1,  25,   1
*Elset, elset=YSYM_TOP, instance=FLUID_INST, generate
 1,  3,  1
*Elset, elset=YSYM_TOP, instance=PIPE_INST, generate
 1,  3,  1
*Elset, elset=YSYM_TOP, instance=ROCK_INST, generate
  1,  24,   1
*Elset, elset=_FASEI_ANNULAR_S1, internal, instance=FLUID_INST, generate
 1,  3,  1
*Elset, elset=_FASEI_ANNULAR_S2, internal, instance=FLUID_INST, generate
  3,  30,   3
*Elset, elset=_FASEI_ANNULAR_S3, internal, instance=FLUID_INST, generate
 28,  30,   1
*Elset, elset=_FASEI_ANNULAR_S4, internal, instance=FLUID_INST, generate
  1,  28,   3
*Surface, type=ELEMENT, name=FASEI_ANNULAR
_FASEI_ANNULAR_S1, S1
_FASEI_ANNULAR_S2, S2
_FASEI_ANNULAR_S4, S4
_FASEI_ANNULAR_S3, S3
*Elset, elset=_FASEI_COMPLETED_WELL_S2, internal, instance=PIPE_INST, generate
  3,  30,   3
*Surface, type=ELEMENT, name=FASEI_COMPLETED_WELL
_FASEI_COMPLETED_WELL_S2, S2
*Elset, elset=_FASEI_FLUIDO_S4, internal, instance=PIPE_INST, generate
  1,  28,   3
*Elset, elset=_FASEI_FLUIDO_S2, internal, instance=ROCK_INST, generate
  24,  240,   24
*Surface, type=ELEMENT, name=FASEI_FLUIDO
_FASEI_FLUIDO_S4, S4
_FASEI_FLUIDO_S2, S2
*Elset, elset=_FASEI_MASTER_S4, internal, instance=PIPE_INST, generate
  1,  28,   3
*Surface, type=ELEMENT, name=FASEI_MASTER
_FASEI_MASTER_S4, S4
*Elset, elset=_FASEI_OPEN_WELL_S2, internal, instance=ROCK_INST, generate
  24,  240,   24
*Surface, type=ELEMENT, name=FASEI_OPEN_WELL
_FASEI_OPEN_WELL_S2, S2
*Elset, elset=_FASEI_REV_S1, internal, instance=PIPE_INST, generate
 1,  3,  1
*Elset, elset=_FASEI_REV_S2, internal, instance=PIPE_INST, generate
  3,  30,   3
*Elset, elset=_FASEI_REV_S3, internal, instance=PIPE_INST, generate
 28,  30,   1
*Elset, elset=_FASEI_REV_S4, internal, instance=PIPE_INST, generate
  1,  28,   3
*Surface, type=ELEMENT, name=FASEI_REV
_FASEI_REV_S1, S1
_FASEI_REV_S2, S2
_FASEI_REV_S4, S4
_FASEI_REV_S3, S3
*Elset, elset=_FASEI_WELL_S2, internal, instance=ROCK_INST, generate
  24,  240,   24
*Surface, type=ELEMENT, name=FASEI_WELL
_FASEI_WELL_S2, S2
*Surface, type=NODE, name=ROCK_INST_FASEI_SLAVE_CNS_, internal
ROCK_INST.FASEI_SLAVE, 1.
*End Assembly
** 
** MATERIALS
** 
*Material, name=FLUID
*Conductivity
 0.702,
*Density
1.,
*Elastic
10000.,0.
*Specific Heat
2060.,
*Material, name=LAYER_01_HALITE
*Conductivity
 5.55,
*Creep, law=DOUBLE POWER
 0.0077864,    6042.9,      2.94, 0.0076093,    6042.9,      8.15,  1.03e+07
*Density
2170.,
*Elastic
 2.04e+10, 0.36
*Expansion
 1e-05,
*Specific Heat
 0.209946,
*Material, name=STEEL
*Conductivity
 45.3452,
*Density
7935.,
*Elastic
 2.06843e+11, 0.3
*Expansion
 0.0001242,
*Specific Heat
 460.9,
** 
** INTERACTION PROPERTIES
** 
*Surface Interaction, name=C_FASEI
1.,
*Friction, slip tolerance=0.005
 0.5,
*Surface Behavior, pressure-overclosure=HARD
*Time Points, name=timePoint
1., 3600., 7200., 14400., 28800., 57600., 86400., 172800.
345600., 691200., 1.3824e+06, 2.7648e+06, 5.5296e+06, 1.10592e+07, 2.21184e+07, 3.1536e+07
6.3072e+07, 1.26144e+08, 2.52288e+08, 5.04576e+08, 9.4608e+08
** 
** PHYSICAL CONSTANTS
** 
*Physical Constants, absolute zero=0., stefan boltzmann=5.67037e-08
** 
** BOUNDARY CONDITIONS
** 
** Name: FIX_FASEI_WELL Type: Symmetry/Antisymmetry/Encastre
*Boundary
FASEI_OPEN_WELL, XSYMM
** Name: PIN_FASEI Type: Symmetry/Antisymmetry/Encastre
*Boundary
PIPE_INST.FASEI_REV, PINNED
** Name: XSYM_ROCK_BC Type: Symmetry/Antisymmetry/Encastre
*Boundary
ROCK_BC, XSYMM
** Name: YSYM_BASE Type: Symmetry/Antisymmetry/Encastre
*Boundary
YSYM_BASE, YSYMM
** Name: YSYM_TOP Type: Symmetry/Antisymmetry/Encastre
*Boundary
YSYM_TOP, YSYMM
** 
** PREDEFINED FIELDS
** 
** Name: NT_FASEI   Type: Temperature Using Field: Geotermico
*Initial Conditions, type=TEMPERATURE
FLUID_INST.1, 313.437
FLUID_INST.2, 313.437
FLUID_INST.3, 313.437
FLUID_INST.4, 313.437
FLUID_INST.5, 314.237
FLUID_INST.6, 314.237
FLUID_INST.7, 314.237
FLUID_INST.8, 314.237
FLUID_INST.9, 315.089
FLUID_INST.10, 315.089
FLUID_INST.11, 315.089
FLUID_INST.12, 315.089
FLUID_INST.13, 315.942
FLUID_INST.14, 315.942
FLUID_INST.15, 315.942
FLUID_INST.16, 315.942
FLUID_INST.17, 316.795
FLUID_INST.18, 316.795
FLUID_INST.19, 316.795
FLUID_INST.20, 316.795
** ... 24 like lines cut
PIPE_INST.1, 313.437
PIPE_INST.2, 313.437
PIPE_INST.3, 313.437
PIPE_INST.4, 313.437
PIPE_INST.5, 314.237
PIPE_INST.6, 314.237
PIPE_INST.7, 314.237
PIPE_INST.8, 314.237
PIPE_INST.9, 315.089
PIPE_INST.10, 315.089
PIPE_INST.11, 315.089
PIPE_INST.12, 315.089
PIPE_INST.13, 315.942
PIPE_INST.14, 315.942
PIPE_INST.15, 315.942
PIPE_INST.16, 315.942
PIPE_INST.17, 316.795
PIPE_INST.18, 316.795
PIPE_INST.19, 316.795
PIPE_INST.20, 316.795
** ... 24 like lines cut
** Name: NT_FASEI_ID   Type: Temperature Using Field: Geotermico
*Initial Conditions, type=TEMPERATURE
PIPE_INST.4, 313.437
PIPE_INST.8, 314.237
PIPE_INST.12, 315.089
PIPE_INST.16, 315.942
PIPE_INST.20, 316.795
PIPE_INST.24, 317.647
PIPE_INST.28, 318.5
PIPE_INST.32, 319.352
PIPE_INST.36, 320.205
PIPE_INST.40, 321.057
PIPE_INST.44, 321.858
** Name: NT_L1-I   Type: Temperature Using Field: NT_L1-I
*Initial Conditions, type=TEMPERATURE
ROCK_INST.1, 313.369
ROCK_INST.2, 313.369
ROCK_INST.3, 313.369
ROCK_INST.4, 313.369
ROCK_INST.5, 313.369
ROCK_INST.6, 313.369
ROCK_INST.7, 313.369
ROCK_INST.8, 313.369
ROCK_INST.9, 313.369
ROCK_INST.10, 313.369
ROCK_INST.11, 313.369
ROCK_INST.12, 313.369
ROCK_INST.13, 313.369
ROCK_INST.14, 313.369
ROCK_INST.15, 313.369
ROCK_INST.16, 313.369
ROCK_INST.17, 313.369
ROCK_INST.18, 313.369
ROCK_INST.19, 313.369
ROCK_INST.20, 313.369
** ... 255 like lines cut
** Name: NT_L1-I_OD   Type: Temperature Using Field: NT_L1-I
*Initial Conditions, type=TEMPERATURE
ROCK_INST.1, 313.369
ROCK_INST.26, 314.221
ROCK_INST.51, 315.074
ROCK_INST.76, 315.926
ROCK_INST.101, 316.779
ROCK_INST.126, 317.631
ROCK_INST.151, 318.484
ROCK_INST.176, 319.336
ROCK_INST.201, 320.189
ROCK_INST.226, 321.041
ROCK_INST.251, 321.894
** Name: S_FASEI_REV   Type: Geostatic stress
*Initial Conditions, type=STRESS, GEOSTATIC
PIPE_INST.FASEI_REV, 6.91531e+07, -3700., 3.80162e+07, -4100., 0., 0.
** Name: S_L1-I   Type: Geostatic stress
*Initial Conditions, type=STRESS, GEOSTATIC
ROCK_INST.L1-I, -5.82102e+07, -3700., -6.6725e+07, -4100., 1., 1.
** 
** INTERACTIONS
** 
** Interaction: C_FASEI
*Contact Pair, interaction=C_FASEI, type=SURFACE TO SURFACE
ROCK_INST_FASEI_SLAVE_CNS_, FASEI_MASTER
** ----------------------------------------------------------------
** 
** STEP: Geostatic
** 
*Step, name=Geostatic, nlgeom=YES
*Geostatic
** 
** LOADS
** 
** Name: GRAVITY   Type: Gravity
*Dload, op=NEW
, GRAV, 9.81, , -1.
** 
** INTERACTIONS
** 
** Interaction: C_FASEI
*Model Change, type=CONTACT PAIR, remove
ROCK_INST_FASEI_SLAVE_CNS_, FASEI_MASTER
** Interaction: MC_FASEI_FLUIDO
*Model Change, remove
FLUID_INST.FASEI_FLUIDO, 
** Interaction: MC_FASEI_REV
*Model Change, remove
PIPE_INST.FASEI_REV, 
** 
** OUTPUT REQUESTS
** 
*Restart, write, frequency=0
** 
** FIELD OUTPUT: FASEI_REV
** 
*Output, field
*Node Output, nset=PIPE_INST.FASEI_REV
NT, U
*Element Output, elset=PIPE_INST.FASEI_REV, directions=YES
E, MISES, PE, S, PEEQ
** 
** FIELD OUTPUT: ROCK_OUTPUT
** 
*Node Output, nset=ROCK_OUTPUT
U, 
*Element Output, elset=ROCK_OUTPUT, directions=YES
TEMP, 
*Output, history, frequency=0
*End Step
** ----------------------------------------------------------------
** 
** STEP: Transition
** 
*Step, name=Transition, nlgeom=YES
*Static
1., 2., 2e-05, 2.
** 
** LOADS
** 
** Name: GRAVITY   Type: Gravity
*Dload, op=NEW
, GRAV, 9.81, , -1.
** 
** OUTPUT REQUESTS
** 
*Restart, write, frequency=0
** 
** FIELD OUTPUT: FASEI_REV
** 
*Output, field, time points=timePoint
*Node Output, nset=PIPE_INST.FASEI_REV
NT, U
*Element Output, elset=PIPE_INST.FASEI_REV, directions=YES
E, MISES, PE, S, PEEQ
** 
** FIELD OUTPUT: ROCK_OUTPUT
** 
*Node Output, nset=ROCK_OUTPUT
U, 
*Element Output, elset=ROCK_OUTPUT, directions=YES
TEMP, 
*Output, history, frequency=0
*End Step
** ----------------------------------------------------------------
** 
** STEP: TempDefine
** 
*Step, name=TempDefine, nlgeom=YES
*Static
1., 3., 3e-05, 3.
** 
** LOADS
** 
** Name: GRAVITY   Type: Gravity
*Dload, op=NEW
, GRAV, 9.81, , -1.
** 
** OUTPUT REQUESTS
** 
*Restart, write, frequency=0
** 
** FIELD OUTPUT: FASEI_REV
** 
*Output, field, time points=timePoint
*Node Output, nset=PIPE_INST.FASEI_REV
NT, U
*Element Output, elset=PIPE_INST.FASEI_REV, directions=YES
E, MISES, PE, S, PEEQ
** 
** FIELD OUTPUT: ROCK_OUTPUT
** 
*Node Output, nset=ROCK_OUTPUT
U, 
*Element Output, elset=ROCK_OUTPUT, directions=YES
TEMP, 
*Output, history, frequency=0
*End Step
** ----------------------------------------------------------------
** 
** STEP: Perf_10_375
** 
*Step, name=Perf_10_375, nlgeom=YES
*Static
1., 1., 1e-05, 1.
** 
** BOUNDARY CONDITIONS
** 
** Name: FIX_FASEI_WELL Type: Symmetry/Antisymmetry/Encastre
*Boundary, op=NEW
** Name: PIN_FASEI Type: Symmetry/Antisymmetry/Encastre
*Boundary, op=NEW
PIPE_INST.FASEI_REV, PINNED
** Name: XSYM_ROCK_BC Type: Symmetry/Antisymmetry/Encastre
*Boundary, op=NEW
ROCK_BC, XSYMM
** Name: YSYM_BASE Type: Symmetry/Antisymmetry/Encastre
*Boundary, op=NEW
YSYM_BASE, YSYMM
** Name: YSYM_TOP Type: Symmetry/Antisymmetry/Encastre
*Boundary, op=NEW
YSYM_TOP, YSYMM
** 
** LOADS
** 
** Name: GRAVITY   Type: Gravity
*Dload, op=NEW
, GRAV, 9.81, , -1.
** Name: P_FASEI_OPEN_WELL   Type: Pressure Using Field: P_FASEI_OPEN_WELL
*Dload, op=NEW
ROCK_INST.24, P2, 3.71691e+07
ROCK_INST.48, P2, 3.75688e+07
ROCK_INST.72, P2, 3.79684e+07
ROCK_INST.96, P2, 3.83681e+07
ROCK_INST.120, P2, 3.87678e+07
ROCK_INST.144, P2, 3.91674e+07
ROCK_INST.168, P2, 3.95671e+07
ROCK_INST.192, P2, 3.99668e+07
ROCK_INST.216, P2, 4.03664e+07
ROCK_INST.240, P2, 4.07661e+07
** 
** OUTPUT REQUESTS
** 
*Restart, write, frequency=0
** 
** FIELD OUTPUT: FASEI_REV
** 
*Output, field, time points=timePoint
*Node Output, nset=PIPE_INST.FASEI_REV
NT, U
*Element Output, elset=PIPE_INST.FASEI_REV, directions=YES
E, MISES, PE, S, PEEQ
** 
** FIELD OUTPUT: ROCK_OUTPUT
** 
*Node Output, nset=ROCK_OUTPUT
U, 
*Element Output, elset=ROCK_OUTPUT, directions=YES
TEMP, 
*Output, history, frequency=0
*End Step
** ----------------------------------------------------------------
** 
** STEP: Perf_10_375_Creep
** 
*Step, name=Perf_10_375_Creep, nlgeom=YES, inc=1000000
*Visco, cetol=0.0001
1e-06, 172800., 1e-15, 172800.
** 
** LOADS
** 
** Name: GRAVITY   Type: Gravity
*Dload, op=NEW
, GRAV, 9.81, , -1.
** Name: P_FASEI_OPEN_WELL   Type: Pressure Using Field: P_FASEI_OPEN_WELL
*Dload, op=NEW
ROCK_INST.24, P2, 3.71691e+07
ROCK_INST.48, P2, 3.75688e+07
ROCK_INST.72, P2, 3.79684e+07
ROCK_INST.96, P2, 3.83681e+07
ROCK_INST.120, P2, 3.87678e+07
ROCK_INST.144, P2, 3.91674e+07
ROCK_INST.168, P2, 3.95671e+07
ROCK_INST.192, P2, 3.99668e+07
ROCK_INST.216, P2, 4.03664e+07
ROCK_INST.240, P2, 4.07661e+07
** 
** OUTPUT REQUESTS
** 
*Restart, write, frequency=0
** 
** FIELD OUTPUT: FASEI_REV
** 
*Output, field, time points=timePoint
*Node Output, nset=PIPE_INST.FASEI_REV
NT, U
*Element Output, elset=PIPE_INST.FASEI_REV, directions=YES
E, MISES, PE, S, PEEQ
** 
** FIELD OUTPUT: ROCK_OUTPUT
** 
*Node Output, nset=ROCK_OUTPUT
U, 
*Element Output, elset=ROCK_OUTPUT, directions=YES
TEMP, 
*Output, history, frequency=0
*End Step
** ----------------------------------------------------------------
** 
** STEP: Rev_9_875
** 
*Step, name=Rev_9_875, nlgeom=YES
*Static
1., 1., 1e-15, 1.
** 
** BOUNDARY CONDITIONS
** 
** Name: PIN_FASEI Type: Symmetry/Antisymmetry/Encastre
*Boundary, op=NEW
** Name: XSYM_ROCK_BC Type: Symmetry/Antisymmetry/Encastre
*Boundary, op=NEW
ROCK_BC, XSYMM
** Name: YSYM_BASE Type: Symmetry/Antisymmetry/Encastre
*Boundary, op=NEW
YSYM_BASE, YSYMM
** Name: YSYM_TOP Type: Symmetry/Antisymmetry/Encastre
*Boundary, op=NEW
YSYM_TOP, YSYMM
** 
** LOADS
** 
** Name: GRAVITY   Type: Gravity
*Dload, op=NEW
, GRAV, 9.81, , -1.
** Name: P_FASEI_COMPLETED_WELL   Type: Pressure Using Field: P_FASEI_COMPLETED_WELL
*Dload, op=NEW
PIPE_INST.3, P2, 3.71691e+07
PIPE_INST.6, P2, 3.75688e+07
PIPE_INST.9, P2, 3.79684e+07
PIPE_INST.12, P2, 3.83681e+07
PIPE_INST.15, P2, 3.87678e+07
PIPE_INST.18, P2, 3.91674e+07
PIPE_INST.21, P2, 3.95671e+07
PIPE_INST.24, P2, 3.99668e+07
PIPE_INST.27, P2, 4.03664e+07
PIPE_INST.30, P2, 4.07661e+07
** Name: P_FASEI_FLUID   Type: Pressure Using Field: P_FASEI_FLUID
*Dload, op=NEW
PIPE_INST.1, P4, 3.71691e+07
PIPE_INST.4, P4, 3.75688e+07
PIPE_INST.7, P4, 3.79684e+07
PIPE_INST.10, P4, 3.83681e+07
PIPE_INST.13, P4, 3.87678e+07
PIPE_INST.16, P4, 3.91674e+07
PIPE_INST.19, P4, 3.95671e+07
PIPE_INST.22, P4, 3.99668e+07
PIPE_INST.25, P4, 4.03664e+07
PIPE_INST.28, P4, 4.07661e+07
ROCK_INST.24, P2, 3.71691e+07
ROCK_INST.48, P2, 3.75688e+07
ROCK_INST.72, P2, 3.79684e+07
ROCK_INST.96, P2, 3.83681e+07
ROCK_INST.120, P2, 3.87678e+07
ROCK_INST.144, P2, 3.91674e+07
ROCK_INST.168, P2, 3.95671e+07
ROCK_INST.192, P2, 3.99668e+07
ROCK_INST.216, P2, 4.03664e+07
ROCK_INST.240, P2, 4.07661e+07
** Name: P_FASEI_OPEN_WELL   Type: Pressure Using Field: P_FASEI_OPEN_WELL
*Dload, op=NEW
** 
** INTERACTIONS
** 
** Interaction: C_FASEI
*Model Change, type=CONTACT PAIR, add
ROCK_INST_FASEI_SLAVE_CNS_, FASEI_MASTER
** Interaction: MC_FASEI_REV
*Model Change, add
PIPE_INST.FASEI_REV, 
** 
** OUTPUT REQUESTS
** 
*Restart, write, frequency=0
** 
** FIELD OUTPUT: FASEI_REV
** 
*Output, field, time points=timePoint
*Node Output, nset=PIPE_INST.FASEI_REV
NT, U
*Element Output, elset=PIPE_INST.FASEI_REV, directions=YES
E, MISES, PE, S, PEEQ
** 
** FIELD OUTPUT: ROCK_OUTPUT
** 
*Node Output, nset=ROCK_OUTPUT
U, 
*Element Output, elset=ROCK_OUTPUT, directions=YES
TEMP, 
*Output, history, frequency=0
*End Step
** ----------------------------------------------------------------
** 
** STEP: Rev_9_875_Creep
** 
*Step, name=Rev_9_875_Creep, nlgeom=YES, inc=1000000
*Visco, cetol=0.0001
1e-06, 9.4608e+08, 1e-15, 1.5552e+07
** 
** LOADS
** 
** Name: GRAVITY   Type: Gravity
*Dload, op=NEW
, GRAV, 9.81, , -1.
** Name: P_FASEI_COMPLETED_WELL   Type: Pressure Using Field: P_FASEI_COMPLETED_WELL
*Dload, op=NEW
PIPE_INST.3, P2, 3.71691e+07
PIPE_INST.6, P2, 3.75688e+07
PIPE_INST.9, P2, 3.79684e+07
PIPE_INST.12, P2, 3.83681e+07
PIPE_INST.15, P2, 3.87678e+07
PIPE_INST.18, P2, 3.91674e+07
PIPE_INST.21, P2, 3.95671e+07
PIPE_INST.24, P2, 3.99668e+07
PIPE_INST.27, P2, 4.03664e+07
PIPE_INST.30, P2, 4.07661e+07
** Name: P_FASEI_FLUID   Type: Pressure Using Field: P_FASEI_FLUID
*Dload, op=NEW
PIPE_INST.1, P4, 3.71691e+07
PIPE_INST.4, P4, 3.75688e+07
PIPE_INST.7, P4, 3.79684e+07
PIPE_INST.10, P4, 3.83681e+07
PIPE_INST.13, P4, 3.87678e+07
PIPE_INST.16, P4, 3.91674e+07
PIPE_INST.19, P4, 3.95671e+07
PIPE_INST.22, P4, 3.99668e+07
PIPE_INST.25, P4, 4.03664e+07
PIPE_INST.28, P4, 4.07661e+07
ROCK_INST.24, P2, 3.71691e+07
ROCK_INST.48, P2, 3.75688e+07
ROCK_INST.72, P2, 3.79684e+07
ROCK_INST.96, P2, 3.83681e+07
ROCK_INST.120, P2, 3.87678e+07
ROCK_INST.144, P2, 3.91674e+07
ROCK_INST.168, P2, 3.95671e+07
ROCK_INST.192, P2, 3.99668e+07
ROCK_INST.216, P2, 4.03664e+07
ROCK_INST.240, P2, 4.07661e+07
** 
** OUTPUT REQUESTS
** 
*Restart, write, frequency=0
** 
** FIELD OUTPUT: FASEI_REV
** 
*Output, field, time points=timePoint
*Node Output, nset=PIPE_INST.FASEI_REV
NT, U
*Element Output, elset=PIPE_INST.FASEI_REV, directions=YES
E, MISES, PE, S, PEEQ
** 
** FIELD OUTPUT: ROCK_OUTPUT
** 
*Node Output, nset=ROCK_OUTPUT
U, 
*Element Output, elset=ROCK_OUTPUT, directions=YES
TEMP, 
*Output, history, frequency=0
*End Step
