*Heading
** Job name: WellClosureJob Model name: MyFirstModel
** Generated by: Abaqus/CAE 2024
*Preprint, echo=NO, model=NO, history=NO, contact=NO
**
** PARTS
**
*Part, name=FLUID
*End Part
**  
*Part, name=PIPE
*End Part
**  
*Part, name=ROCK
*End Part
**  
**
** ASSEMBLY
**
*Assembly, name=Assembly
**  
*Instance, name=FLUID_INST, part=FLUID
*Node
      1,  0.155575007,       -3600.
      2,   0.14088428,       -3600.
      3,   0.14088428,       -4100.
      4,  0.155575007,       -4100.
      5,  0.155575007,       -2700.
      6,   0.14088428,       -2700.
      7,  0.150678098,       -3600.
      8,  0.145781189,       -3600.
      9,   0.14088428,       -3605.
     10,   0.14088428,       -3610.
     11,   0.14088428,       -3615.
     12,   0.14088428,       -3620.
     13,   0.14088428,       -3625.
     14,   0.14088428,       -3630.
     15,   0.14088428,       -3635.
     16,   0.14088428,       -3640.
     17,   0.14088428,       -3645.
     18,   0.14088428,       -3650.
     19,   0.14088428,       -3655.
     20,   0.14088428,       -3660.
** ... 1104 like lines cut
*Element, type=CAX4
  1,   1,   7, 569, 208
  2,   7,   8, 570, 569
  3,   8,   2,   9, 570
  4, 208, 569, 571, 207
  5, 569, 570, 572, 571
  6, 570,   9,  10, 572
  7, 207, 571, 573, 206
  8, 571, 572, 574, 573
  9, 572,  10,  11, 574
 10, 206, 573, 575, 205
 11, 573, 574, 576, 575
 12, 574,  11,  12, 576
 13, 205, 575, 577, 204
 14, 575, 576, 578, 577
 15, 576,  12,  13, 578
 16, 204, 577, 579, 203
 17, 577, 578, 580, 579
 18, 578,  13,  14, 580
 19, 203, 579, 581, 202
 20, 579, 580, 582, 581
** ... 820 like lines cut
*Nset, nset=FASEI_FLUIDO, generate
    1,  1124,     1
*Elset, elset=FASEI_FLUIDO, generate
   1,  840,    1
*Nset, nset=FASEI_FLUIDO_BASE
   3,   4, 108, 109
*Elset, elset=FASEI_FLUIDO_BASE, generate
 298,  300,    1
*Nset, nset=FASEI_FLUIDO_ID
   2,   3,   6,   9,  10,  11,  12,  13,  14,  15,  16,  17,  18,  19,  20,  21
  22,  23,  24,  25,  26,  27,  28,  29,  30,  31,  32,  33,  34,  35,  36,  37
  38,  39,  40,  41,  42,  43,  44,  45,  46,  47,  48,  49,  50,  51,  52,  53
  54,  55,  56,  57,  58,  59,  60,  61,  62,  63,  64,  65,  66,  67,  68,  69
  70,  71,  72,  73,  74,  75,  76,  77,  78,  79,  80,  81,  82,  83,  84,  85
  86,  87,  88,  89,  90,  91,  92,  93,  94,  95,  96,  97,  98,  99, 100, 101
 102, 103, 104, 105, 106, 107, 390, 391, 392, 393, 394, 395, 396, 397, 398, 399
 400, 401, 402, 403, 404, 405, 406, 407, 408, 409, 410, 411, 412, 413, 414, 415
 416, 417, 418, 419, 420, 421, 422, 423, 424, 425, 426, 427, 428, 429, 430, 431
 432, 433, 434, 435, 436, 437, 438, 439, 440, 441, 442, 443, 444, 445, 446, 447
 448, 449, 450, 451, 452, 453, 454, 455, 456, 457, 458, 459, 460, 461, 462, 463
 464, 465, 466, 467, 468, 469, 470, 471, 472, 473, 474, 475, 476, 477, 478, 479
 480, 481, 482, 483, 484, 485, 486, 487, 488, 489, 490, 491, 492, 493, 494, 495
 496, 497, 498, 499, 500, 501, 502, 503, 504, 505, 506, 507, 508, 509, 510, 511
 512, 513, 514, 515, 516, 517, 518, 519, 520, 521, 522, 523, 524, 525, 526, 527
 528, 529, 530, 531, 532, 533, 534, 535, 536, 537, 538, 539, 540, 541, 542, 543
 544, 545, 546, 547, 548, 549, 550, 551, 552, 553, 554, 555, 556, 557, 558, 559
 560, 561, 562, 563, 564, 565, 566, 567, 568
*Elset, elset=FASEI_FLUIDO_ID
   3,   6,   9,  12,  15,  18,  21,  24,  27,  30,  33,  36,  39,  42,  45,  48
  51,  54,  57,  60,  63,  66,  69,  72,  75,  78,  81,  84,  87,  90,  93,  96
  99, 102, 105, 108, 111, 114, 117, 120, 123, 126, 129, 132, 135, 138, 141, 144
 147, 150, 153, 156, 159, 162, 165, 168, 171, 174, 177, 180, 183, 186, 189, 192
 195, 198, 201, 204, 207, 210, 213, 216, 219, 222, 225, 228, 231, 234, 237, 240
 243, 246, 249, 252, 255, 258, 261, 264, 267, 270, 273, 276, 279, 282, 285, 288
 291, 294, 297, 300, 301, 304, 307, 310, 313, 316, 319, 322, 325, 328, 331, 334
 337, 340, 343, 346, 349, 352, 355, 358, 361, 364, 367, 370, 373, 376, 379, 382
 385, 388, 391, 394, 397, 400, 403, 406, 409, 412, 415, 418, 421, 424, 427, 430
 433, 436, 439, 442, 445, 448, 451, 454, 457, 460, 463, 466, 469, 472, 475, 478
 481, 484, 487, 490, 493, 496, 499, 502, 505, 508, 511, 514, 517, 520, 523, 526
 529, 532, 535, 538, 541, 544, 547, 550, 553, 556, 559, 562, 565, 568, 571, 574
 577, 580, 583, 586, 589, 592, 595, 598, 601, 604, 607, 610, 613, 616, 619, 622
 625, 628, 631, 634, 637, 640, 643, 646, 649, 652, 655, 658, 661, 664, 667, 670
 673, 676, 679, 682, 685, 688, 691, 694, 697, 700, 703, 706, 709, 712, 715, 718
 721, 724, 727, 730, 733, 736, 739, 742, 745, 748, 751, 754, 757, 760, 763, 766
 769, 772, 775, 778, 781, 784, 787, 790, 793, 796, 799, 802, 805, 808, 811, 814
 817, 820, 823, 826, 829, 832, 835, 838
*Nset, nset=FASEI_FLUIDO_OD
   1,   4,   5, 110, 111, 112, 113, 114, 115, 116, 117, 118, 119, 120, 121, 122
 123, 124, 125, 126, 127, 128, 129, 130, 131, 132, 133, 134, 135, 136, 137, 138
 139, 140, 141, 142, 143, 144, 145, 146, 147, 148, 149, 150, 151, 152, 153, 154
 155, 156, 157, 158, 159, 160, 161, 162, 163, 164, 165, 166, 167, 168, 169, 170
 171, 172, 173, 174, 175, 176, 177, 178, 179, 180, 181, 182, 183, 184, 185, 186
 187, 188, 189, 190, 191, 192, 193, 194, 195, 196, 197, 198, 199, 200, 201, 202
 203, 204, 205, 206, 207, 208, 209, 210, 211, 212, 213, 214, 215, 216, 217, 218
 219, 220, 221, 222, 223, 224, 225, 226, 227, 228, 229, 230, 231, 232, 233, 234
 235, 236, 237, 238, 239, 240, 241, 242, 243, 244, 245, 246, 247, 248, 249, 250
 251, 252, 253, 254, 255, 256, 257, 258, 259, 260, 261, 262, 263, 264, 265, 266
 267, 268, 269, 270, 271, 272, 273, 274, 275, 276, 277, 278, 279, 280, 281, 282
 283, 284, 285, 286, 287, 288, 289, 290, 291, 292, 293, 294, 295, 296, 297, 298
 299, 300, 301, 302, 303, 304, 305, 306, 307, 308, 309, 310, 311, 312, 313, 314
 315, 316, 317, 318, 319, 320, 321, 322, 323, 324, 325, 326, 327, 328, 329, 330
 331, 332, 333, 334, 335, 336, 337, 338, 339, 340, 341, 342, 343, 344, 345, 346
 347, 348, 349, 350, 351, 352, 353, 354, 355, 356, 357, 358, 359, 360, 361, 362
 363, 364, 365, 366, 367, 368, 369, 370, 371, 372, 373, 374, 375, 376, 377, 378
 379, 380, 381, 382, 383, 384, 385, 386, 387
*Elset, elset=FASEI_FLUIDO_OD
   1,   4,   7,  10,  13,  16,  19,  22,  25,  28,  31,  34,  37,  40,  43,  46
  49,  52,  55,  58,  61,  64,  67,  70,  73,  76,  79,  82,  85,  88,  91,  94
  97, 100, 103, 106, 109, 112, 115, 118, 121, 124, 127, 130, 133, 136, 139, 142
 145, 148, 151, 154, 157, 160, 163, 166, 169, 172, 175, 178, 181, 184, 187, 190
 193, 196, 199, 202, 205, 208, 211, 214, 217, 220, 223, 226, 229, 232, 235, 238
 241, 244, 247, 250, 253, 256, 259, 262, 265, 268, 271, 274, 277, 280, 283, 286
 289, 292, 295, 298, 303, 306, 309, 312, 315, 318, 321, 324, 327, 330, 333, 336
 339, 342, 345, 348, 351, 354, 357, 360, 363, 366, 369, 372, 375, 378, 381, 384
 387, 390, 393, 396, 399, 402, 405, 408, 411, 414, 417, 420, 423, 426, 429, 432
 435, 438, 441, 444, 447, 450, 453, 456, 459, 462, 465, 468, 471, 474, 477, 480
 483, 486, 489, 492, 495, 498, 501, 504, 507, 510, 513, 516, 519, 522, 525, 528
 531, 534, 537, 540, 543, 546, 549, 552, 555, 558, 561, 564, 567, 570, 573, 576
 579, 582, 585, 588, 591, 594, 597, 600, 603, 606, 609, 612, 615, 618, 621, 624
 627, 630, 633, 636, 639, 642, 645, 648, 651, 654, 657, 660, 663, 666, 669, 672
 675, 678, 681, 684, 687, 690, 693, 696, 699, 702, 705, 708, 711, 714, 717, 720
 723, 726, 729, 732, 735, 738, 741, 744, 747, 750, 753, 756, 759, 762, 765, 768
 771, 774, 777, 780, 783, 786, 789, 792, 795, 798, 801, 804, 807, 810, 813, 816
 819, 822, 825, 828, 831, 834, 837, 840
*Nset, nset=FASEI_FLUIDO_TOP
   5,   6, 388, 389
*Elset, elset=FASEI_FLUIDO_TOP, generate
 838,  840,    1
*Nset, nset=FASEI_ANNULAR, generate
    1,  1124,     1
*Elset, elset=FASEI_ANNULAR, generate
   1,  840,    1
*Nset, nset=FASEI_ANNULAR_BASE
   3,   4, 108, 109
*Elset, elset=FASEI_ANNULAR_BASE, generate
 298,  300,    1
*Nset, nset=FASEI_ANNULAR_ID
   2,   3,   6,   9,  10,  11,  12,  13,  14,  15,  16,  17,  18,  19,  20,  21
  22,  23,  24,  25,  26,  27,  28,  29,  30,  31,  32,  33,  34,  35,  36,  37
  38,  39,  40,  41,  42,  43,  44,  45,  46,  47,  48,  49,  50,  51,  52,  53
  54,  55,  56,  57,  58,  59,  60,  61,  62,  63,  64,  65,  66,  67,  68,  69
  70,  71,  72,  73,  74,  75,  76,  77,  78,  79,  80,  81,  82,  83,  84,  85
  86,  87,  88,  89,  90,  91,  92,  93,  94,  95,  96,  97,  98,  99, 100, 101
 102, 103, 104, 105, 106, 107, 390, 391, 392, 393, 394, 395, 396, 397, 398, 399
 400, 401, 402, 403, 404, 405, 406, 407, 408, 409, 410, 411, 412, 413, 414, 415
 416, 417, 418, 419, 420, 421, 422, 423, 424, 425, 426, 427, 428, 429, 430, 431
 432, 433, 434, 435, 436, 437, 438, 439, 440, 441, 442, 443, 444, 445, 446, 447
 448, 449, 450, 451, 452, 453, 454, 455, 456, 457, 458, 459, 460, 461, 462, 463
 464, 465, 466, 467, 468, 469, 470, 471, 472, 473, 474, 475, 476, 477, 478, 479
 480, 481, 482, 483, 484, 485, 486, 487, 488, 489, 490, 491, 492, 493, 494, 495
 496, 497, 498, 499, 500, 501, 502, 503, 504, 505, 506, 507, 508, 509, 510, 511
 512, 513, 514, 515, 516, 517, 518, 519, 520, 521, 522, 523, 524, 525, 526, 527
 528, 529, 530, 531, 532, 533, 534, 535, 536, 537, 538, 539, 540, 541, 542, 543
 544, 545, 546, 547, 548, 549, 550, 551, 552, 553, 554, 555, 556, 557, 558, 559
 560, 561, 562, 563, 564, 565, 566, 567, 568
*Elset, elset=FASEI_ANNULAR_ID
   3,   6,   9,  12,  15,  18,  21,  24,  27,  30,  33,  36,  39,  42,  45,  48
  51,  54,  57,  60,  63,  66,  69,  72,  75,  78,  81,  84,  87,  90,  93,  96
  99, 102, 105, 108, 111, 114, 117, 120, 123, 126, 129, 132, 135, 138, 141, 144
 147, 150, 153, 156, 159, 162, 165, 168, 171, 174, 177, 180, 183, 186, 189, 192
 195, 198, 201, 204, 207, 210, 213, 216, 219, 222, 225, 228, 231, 234, 237, 240
 243, 246, 249, 252, 255, 258, 261, 264, 267, 270, 273, 276, 279, 282, 285, 288
 291, 294, 297, 300, 301, 304, 307, 310, 313, 316, 319, 322, 325, 328, 331, 334
 337, 340, 343, 346, 349, 352, 355, 358, 361, 364, 367, 370, 373, 376, 379, 382
 385, 388, 391, 394, 397, 400, 403, 406, 409, 412, 415, 418, 421, 424, 427, 430
 433, 436, 439, 442, 445, 448, 451, 454, 457, 460, 463, 466, 469, 472, 475, 478
 481, 484, 487, 490, 493, 496, 499, 502, 505, 508, 511, 514, 517, 520, 523, 526
 529, 532, 535, 538, 541, 544, 547, 550, 553, 556, 559, 562, 565, 568, 571, 574
 577, 580, 583, 586, 589, 592, 595, 598, 601, 604, 607, 610, 613, 616, 619, 622
 625, 628, 631, 634, 637, 640, 643, 646, 649, 652, 655, 658, 661, 664, 667, 670
 673, 676, 679, 682, 685, 688, 691, 694, 697, 700, 703, 706, 709, 712, 715, 718
 721, 724, 727, 730, 733, 736, 739, 742, 745, 748, 751, 754, 757, 760, 763, 766
 769, 772, 775, 778, 781, 784, 787, 790, 793, 796, 799, 802, 805, 808, 811, 814
 817, 820, 823, 826, 829, 832, 835, 838
*Nset, nset=FASEI_ANNULAR_OD
   1,   4,   5, 110, 111, 112, 113, 114, 115, 116, 117, 118, 119, 120, 121, 122
 123, 124, 125, 126, 127, 128, 129, 130, 131, 132, 133, 134, 135, 136, 137, 138
 139, 140, 141, 142, 143, 144, 145, 146, 147, 148, 149, 150, 151, 152, 153, 154
 155, 156, 157, 158, 159, 160, 161, 162, 163, 164, 165, 166, 167, 168, 169, 170
 171, 172, 173, 174, 175, 176, 177, 178, 179, 180, 181, 182, 183, 184, 185, 186
 187, 188, 189, 190, 191, 192, 193, 194, 195, 196, 197, 198, 199, 200, 201, 202
 203, 204, 205, 206, 207, 208, 209, 210, 211, 212, 213, 214, 215, 216, 217, 218
 219, 220, 221, 222, 223, 224, 225, 226, 227, 228, 229, 230, 231, 232, 233, 234
 235, 236, 237, 238, 239, 240, 241, 242, 243, 244, 245, 246, 247, 248, 249, 250
 251, 252, 253, 254, 255, 256, 257, 258, 259, 260, 261, 262, 263, 264, 265, 266
 267, 268, 269, 270, 271, 272, 273, 274, 275, 276, 277, 278, 279, 280, 281, 282
 283, 284, 285, 286, 287, 288, 289, 290, 291, 292, 293, 294, 295, 296, 297, 298
 299, 300, 301, 302, 303, 304, 305, 306, 307, 308, 309, 310, 311, 312, 313, 314
 315, 316, 317, 318, 319, 320, 321, 322, 323, 324, 325, 326, 327, 328, 329, 330
 331, 332, 333, 334, 335, 336, 337, 338, 339, 340, 341, 342, 343, 344, 345, 346
 347, 348, 349, 350, 351, 352, 353, 354, 355, 356, 357, 358, 359, 360, 361, 362
 363, 364, 365, 366, 367, 368, 369, 370, 371, 372, 373, 374, 375, 376, 377, 378
 379, 380, 381, 382, 383, 384, 385, 386, 387
*Elset, elset=FASEI_ANNULAR_OD
   1,   4,   7,  10,  13,  16,  19,  22,  25,  28,  31,  34,  37,  40,  43,  46
  49,  52,  55,  58,  61,  64,  67,  70,  73,  76,  79,  82,  85,  88,  91,  94
  97, 100, 103, 106, 109, 112, 115, 118, 121, 124, 127, 130, 133, 136, 139, 142
 145, 148, 151, 154, 157, 160, 163, 166, 169, 172, 175, 178, 181, 184, 187, 190
 193, 196, 199, 202, 205, 208, 211, 214, 217, 220, 223, 226, 229, 232, 235, 238
 241, 244, 247, 250, 253, 256, 259, 262, 265, 268, 271, 274, 277, 280, 283, 286
 289, 292, 295, 298, 303, 306, 309, 312, 315, 318, 321, 324, 327, 330, 333, 336
 339, 342, 345, 348, 351, 354, 357, 360, 363, 366, 369, 372, 375, 378, 381, 384
 387, 390, 393, 396, 399, 402, 405, 408, 411, 414, 417, 420, 423, 426, 429, 432
 435, 438, 441, 444, 447, 450, 453, 456, 459, 462, 465, 468, 471, 474, 477, 480
 483, 486, 489, 492, 495, 498, 501, 504, 507, 510, 513, 516, 519, 522, 525, 528
 531, 534, 537, 540, 543, 546, 549, 552, 555, 558, 561, 564, 567, 570, 573, 576
 579, 582, 585, 588, 591, 594, 597, 600, 603, 606, 609, 612, 615, 618, 621, 624
 627, 630, 633, 636, 639, 642, 645, 648, 651, 654, 657, 660, 663, 666, 669, 672
 675, 678, 681, 684, 687, 690, 693, 696, 699, 702, 705, 708, 711, 714, 717, 720
 723, 726, 729, 732, 735, 738, 741, 744, 747, 750, 753, 756, 759, 762, 765, 768
 771, 774, 777, 780, 783, 786, 789, 792, 795, 798, 801, 804, 807, 810, 813, 816
 819, 822, 825, 828, 831, 834, 837, 840
*Nset, nset=FASEI_ANNULAR_TOP
   5,   6, 388, 389
*Elset, elset=FASEI_ANNULAR_TOP, generate
 838,  840,    1
*Nset, nset=FASEI_ANNULAR_TT
   1,   2,   3,   4,   5,   6,   7,   8, 108, 109, 388, 389
*Elset, elset=FASEI_ANNULAR_TT
   1,   2,   3, 298, 299, 300, 301, 302, 303, 838, 839, 840
** Section: FLUID_Section
*Solid Section, elset=FASEI_FLUIDO, material=FLUID
1.,
*End Instance
**  
*Instance, name=PIPE_INST, part=PIPE
*Node
      1,   0.14088428,       -3600.
      2,  0.125009269,       -3600.
      3,  0.125009269,       -4100.
      4,   0.14088428,       -4100.
      5,   0.14088428,       -2700.
      6,  0.125009269,       -2700.
      7,   0.13559261,       -3600.
      8,  0.130300939,       -3600.
      9,  0.125009269,       -3605.
     10,  0.125009269,       -3610.
     11,  0.125009269,       -3615.
     12,  0.125009269,       -3620.
     13,  0.125009269,       -3625.
     14,  0.125009269,       -3630.
     15,  0.125009269,       -3635.
     16,  0.125009269,       -3640.
     17,  0.125009269,       -3645.
     18,  0.125009269,       -3650.
     19,  0.125009269,       -3655.
     20,  0.125009269,       -3660.
** ... 1104 like lines cut
*Element, type=CAX4
  1,   1,   7, 569, 208
  2,   7,   8, 570, 569
  3,   8,   2,   9, 570
  4, 208, 569, 571, 207
  5, 569, 570, 572, 571
  6, 570,   9,  10, 572
  7, 207, 571, 573, 206
  8, 571, 572, 574, 573
  9, 572,  10,  11, 574
 10, 206, 573, 575, 205
 11, 573, 574, 576, 575
 12, 574,  11,  12, 576
 13, 205, 575, 577, 204
 14, 575, 576, 578, 577
 15, 576,  12,  13, 578
 16, 204, 577, 579, 203
 17, 577, 578, 580, 579
 18, 578,  13,  14, 580
 19, 203, 579, 581, 202
 20, 579, 580, 582, 581
** ... 820 like lines cut
*Nset, nset=FASEI_REV, generate
    1,  1124,     1
*Elset, elset=FASEI_REV, generate
   1,  840,    1
*Nset, nset=FASEI_REV_ABOVE_TOC, generate
    1,  1124,     1
*Elset, elset=FASEI_REV_ABOVE_TOC, generate
   1,  840,    1
*Nset, nset=FASEI_REV_BASE
   3,   4, 108, 109
*Elset, elset=FASEI_REV_BASE, generate
 298,  300,    1
*Nset, nset=FASEI_REV_ID
   2,   3,   6,   9,  10,  11,  12,  13,  14,  15,  16,  17,  18,  19,  20,  21
  22,  23,  24,  25,  26,  27,  28,  29,  30,  31,  32,  33,  34,  35,  36,  37
  38,  39,  40,  41,  42,  43,  44,  45,  46,  47,  48,  49,  50,  51,  52,  53
  54,  55,  56,  57,  58,  59,  60,  61,  62,  63,  64,  65,  66,  67,  68,  69
  70,  71,  72,  73,  74,  75,  76,  77,  78,  79,  80,  81,  82,  83,  84,  85
  86,  87,  88,  89,  90,  91,  92,  93,  94,  95,  96,  97,  98,  99, 100, 101
 102, 103, 104, 105, 106, 107, 390, 391, 392, 393, 394, 395, 396, 397, 398, 399
 400, 401, 402, 403, 404, 405, 406, 407, 408, 409, 410, 411, 412, 413, 414, 415
 416, 417, 418, 419, 420, 421, 422, 423, 424, 425, 426, 427, 428, 429, 430, 431
 432, 433, 434, 435, 436, 437, 438, 439, 440, 441, 442, 443, 444, 445, 446, 447
 448, 449, 450, 451, 452, 453, 454, 455, 456, 457, 458, 459, 460, 461, 462, 463
 464, 465, 466, 467, 468, 469, 470, 471, 472, 473, 474, 475, 476, 477, 478, 479
 480, 481, 482, 483, 484, 485, 486, 487, 488, 489, 490, 491, 492, 493, 494, 495
 496, 497, 498, 499, 500, 501, 502, 503, 504, 505, 506, 507, 508, 509, 510, 511
 512, 513, 514, 515, 516, 517, 518, 519, 520, 521, 522, 523, 524, 525, 526, 527
 528, 529, 530, 531, 532, 533, 534, 535, 536, 537, 538, 539, 540, 541, 542, 543
 544, 545, 546, 547, 548, 549, 550, 551, 552, 553, 554, 555, 556, 557, 558, 559
 560, 561, 562, 563, 564, 565, 566, 567, 568
*Elset, elset=FASEI_REV_ID
   3,   6,   9,  12,  15,  18,  21,  24,  27,  30,  33,  36,  39,  42,  45,  48
  51,  54,  57,  60,  63,  66,  69,  72,  75,  78,  81,  84,  87,  90,  93,  96
  99, 102, 105, 108, 111, 114, 117, 120, 123, 126, 129, 132, 135, 138, 141, 144
 147, 150, 153, 156, 159, 162, 165, 168, 171, 174, 177, 180, 183, 186, 189, 192
 195, 198, 201, 204, 207, 210, 213, 216, 219, 222, 225, 228, 231, 234, 237, 240
 243, 246, 249, 252, 255, 258, 261, 264, 267, 270, 273, 276, 279, 282, 285, 288
 291, 294, 297, 300, 301, 304, 307, 310, 313, 316, 319, 322, 325, 328, 331, 334
 337, 340, 343, 346, 349, 352, 355, 358, 361, 364, 367, 370, 373, 376, 379, 382
 385, 388, 391, 394, 397, 400, 403, 406, 409, 412, 415, 418, 421, 424, 427, 430
 433, 436, 439, 442, 445, 448, 451, 454, 457, 460, 463, 466, 469, 472, 475, 478
 481, 484, 487, 490, 493, 496, 499, 502, 505, 508, 511, 514, 517, 520, 523, 526
 529, 532, 535, 538, 541, 544, 547, 550, 553, 556, 559, 562, 565, 568, 571, 574
 577, 580, 583, 586, 589, 592, 595, 598, 601, 604, 607, 610, 613, 616, 619, 622
 625, 628, 631, 634, 637, 640, 643, 646, 649, 652, 655, 658, 661, 664, 667, 670
 673, 676, 679, 682, 685, 688, 691, 694, 697, 700, 703, 706, 709, 712, 715, 718
 721, 724, 727, 730, 733, 736, 739, 742, 745, 748, 751, 754, 757, 760, 763, 766
 769, 772, 775, 778, 781, 784, 787, 790, 793, 796, 799, 802, 805, 808, 811, 814
 817, 820, 823, 826, 829, 832, 835, 838
*Nset, nset=FASEI_REV_OD
   1,   4,   5, 110, 111, 112, 113, 114, 115, 116, 117, 118, 119, 120, 121, 122
 123, 124, 125, 126, 127, 128, 129, 130, 131, 132, 133, 134, 135, 136, 137, 138
 139, 140, 141, 142, 143, 144, 145, 146, 147, 148, 149, 150, 151, 152, 153, 154
 155, 156, 157, 158, 159, 160, 161, 162, 163, 164, 165, 166, 167, 168, 169, 170
 171, 172, 173, 174, 175, 176, 177, 178, 179, 180, 181, 182, 183, 184, 185, 186
 187, 188, 189, 190, 191, 192, 193, 194, 195, 196, 197, 198, 199, 200, 201, 202
 203, 204, 205, 206, 207, 208, 209, 210, 211, 212, 213, 214, 215, 216, 217, 218
 219, 220, 221, 222, 223, 224, 225, 226, 227, 228, 229, 230, 231, 232, 233, 234
 235, 236, 237, 238, 239, 240, 241, 242, 243, 244, 245, 246, 247, 248, 249, 250
 251, 252, 253, 254, 255, 256, 257, 258, 259, 260, 261, 262, 263, 264, 265, 266
 267, 268, 269, 270, 271, 272, 273, 274, 275, 276, 277, 278, 279, 280, 281, 282
 283, 284, 285, 286, 287, 288, 289, 290, 291, 292, 293, 294, 295, 296, 297, 298
 299, 300, 301, 302, 303, 304, 305, 306, 307, 308, 309, 310, 311, 312, 313, 314
 315, 316, 317, 318, 319, 320, 321, 322, 323, 324, 325, 326, 327, 328, 329, 330
 331, 332, 333, 334, 335, 336, 337, 338, 339, 340, 341, 342, 343, 344, 345, 346
 347, 348, 349, 350, 351, 352, 353, 354, 355, 356, 357, 358, 359, 360, 361, 362
 363, 364, 365, 366, 367, 368, 369, 370, 371, 372, 373, 374, 375, 376, 377, 378
 379, 380, 381, 382, 383, 384, 385, 386, 387
*Elset, elset=FASEI_REV_OD
   1,   4,   7,  10,  13,  16,  19,  22,  25,  28,  31,  34,  37,  40,  43,  46
  49,  52,  55,  58,  61,  64,  67,  70,  73,  76,  79,  82,  85,  88,  91,  94
  97, 100, 103, 106, 109, 112, 115, 118, 121, 124, 127, 130, 133, 136, 139, 142
 145, 148, 151, 154, 157, 160, 163, 166, 169, 172, 175, 178, 181, 184, 187, 190
 193, 196, 199, 202, 205, 208, 211, 214, 217, 220, 223, 226, 229, 232, 235, 238
 241, 244, 247, 250, 253, 256, 259, 262, 265, 268, 271, 274, 277, 280, 283, 286
 289, 292, 295, 298, 303, 306, 309, 312, 315, 318, 321, 324, 327, 330, 333, 336
 339, 342, 345, 348, 351, 354, 357, 360, 363, 366, 369, 372, 375, 378, 381, 384
 387, 390, 393, 396, 399, 402, 405, 408, 411, 414, 417, 420, 423, 426, 429, 432
 435, 438, 441, 444, 447, 450, 453, 456, 459, 462, 465, 468, 471, 474, 477, 480
 483, 486, 489, 492, 495, 498, 501, 504, 507, 510, 513, 516, 519, 522, 525, 528
 531, 534, 537, 540, 543, 546, 549, 552, 555, 558, 561, 564, 567, 570, 573, 576
 579, 582, 585, 588, 591, 594, 597, 600, 603, 606, 609, 612, 615, 618, 621, 624
 627, 630, 633, 636, 639, 642, 645, 648, 651, 654, 657, 660, 663, 666, 669, 672
 675, 678, 681, 684, 687, 690, 693, 696, 699, 702, 705, 708, 711, 714, 717, 720
 723, 726, 729, 732, 735, 738, 741, 744, 747, 750, 753, 756, 759, 762, 765, 768
 771, 774, 777, 780, 783, 786, 789, 792, 795, 798, 801, 804, 807, 810, 813, 816
 819, 822, 825, 828, 831, 834, 837, 840
*Nset, nset=FASEI_REV_TOP
   5,   6, 388, 389
*Elset, elset=FASEI_REV_TOP, generate
 838,  840,    1
*Nset, nset=FASEI_REV_TT
   1,   2,   3,   4,   5,   6,   7,   8, 108, 109, 388, 389
*Elset, elset=FASEI_REV_TT
   1,   2,   3, 298, 299, 300, 301, 302, 303, 838, 839, 840
** Section: STEEL_Section
*Solid Section, elset=FASEI_REV, material=STEEL
1.,
*End Instance
**  
*Instance, name=ROCK_INST, part=ROCK
*Node
      1,   12.1555748,       -3600.
      2,  0.155575007,       -3600.
      3,  0.155575007,       -4100.
      4,   12.1555748,       -4100.
      5,   12.1555748,       -2700.
      6,  0.155575007,       -2700.
      7,   9.15060329,       -3600.
      8,   6.89736795,       -3600.
      9,   5.20781231,       -3600.
     10,   3.94092321,       -3600.
     11,   2.99096465,       -3600.
     12,   2.27865171,       -3600.
     13,   1.74453425,       -3600.
     14,   1.34403396,       -3600.
     15,   1.04372454,       -3600.
     16,  0.818541765,       -3600.
     17,  0.649691761,       -3600.
     18,  0.523082018,       -3600.
     19,  0.428145498,       -3600.
     20,  0.356958717,       -3600.
** ... 7005 like lines cut
*Element, type=CAX4
   1,    1,    7,  632,  250
   2,    7,    8,  633,  632
   3,    8,    9,  634,  633
   4,    9,   10,  635,  634
   5,   10,   11,  636,  635
   6,   11,   12,  637,  636
   7,   12,   13,  638,  637
   8,   13,   14,  639,  638
   9,   14,   15,  640,  639
  10,   15,   16,  641,  640
  11,   16,   17,  642,  641
  12,   17,   18,  643,  642
  13,   18,   19,  644,  643
  14,   19,   20,  645,  644
  15,   20,   21,  646,  645
  16,   21,   22,  647,  646
  17,   22,   23,  648,  647
  18,   23,   24,  649,  648
  19,   24,   25,  650,  649
  20,   25,   26,  651,  650
** ... 6700 like lines cut
*Node
   7026,           0.,       -2700.,           0.
*Nset, nset=ROCK_INST-RefPt_, internal
7026, 
*Nset, nset=RP_TOP_2700
 7026,
*Nset, nset=ALLROCK, generate
    1,  7025,     1
*Elset, elset=ALLROCK, generate
    1,  6720,     1
*Nset, nset=FASEI_SLAVE, generate
    1,  7025,     1
*Elset, elset=FASEI_SLAVE, generate
    1,  6720,     1
*Nset, nset=L1-I_BASE
  1,  2,  7,  8,  9, 10, 11, 12, 13, 14, 15, 16, 17, 18, 19, 20
 21, 22, 23, 24, 25, 26, 27, 28, 29
*Elset, elset=L1-I_BASE
    1,    2,    3,    4,    5,    6,    7,    8,    9,   10,   11,   12,   13,   14,   15,   16
   17,   18,   19,   20,   21,   22,   23,   24, 2401, 2402, 2403, 2404, 2405, 2406, 2407, 2408
 2409, 2410, 2411, 2412, 2413, 2414, 2415, 2416, 2417, 2418, 2419, 2420, 2421, 2422, 2423, 2424
*Nset, nset=L2-I_BASE
   3,   4, 129, 130, 131, 132, 133, 134, 135, 136, 137, 138, 139, 140, 141, 142
 143, 144, 145, 146, 147, 148, 149, 150, 151
*Elset, elset=L2-I_BASE, generate
 2377,  2400,     1
*Nset, nset=L1-I_ID
   2,   6, 453, 454, 455, 456, 457, 458, 459, 460, 461, 462, 463, 464, 465, 466
 467, 468, 469, 470, 471, 472, 473, 474, 475, 476, 477, 478, 479, 480, 481, 482
 483, 484, 485, 486, 487, 488, 489, 490, 491, 492, 493, 494, 495, 496, 497, 498
 499, 500, 501, 502, 503, 504, 505, 506, 507, 508, 509, 510, 511, 512, 513, 514
 515, 516, 517, 518, 519, 520, 521, 522, 523, 524, 525, 526, 527, 528, 529, 530
 531, 532, 533, 534, 535, 536, 537, 538, 539, 540, 541, 542, 543, 544, 545, 546
 547, 548, 549, 550, 551, 552, 553, 554, 555, 556, 557, 558, 559, 560, 561, 562
 563, 564, 565, 566, 567, 568, 569, 570, 571, 572, 573, 574, 575, 576, 577, 578
 579, 580, 581, 582, 583, 584, 585, 586, 587, 588, 589, 590, 591, 592, 593, 594
 595, 596, 597, 598, 599, 600, 601, 602, 603, 604, 605, 606, 607, 608, 609, 610
 611, 612, 613, 614, 615, 616, 617, 618, 619, 620, 621, 622, 623, 624, 625, 626
 627, 628, 629, 630, 631
*Elset, elset=L1-I_ID, generate
 2401,  6697,    24
*Nset, nset=L2-I_ID
   2,   3,  30,  31,  32,  33,  34,  35,  36,  37,  38,  39,  40,  41,  42,  43
  44,  45,  46,  47,  48,  49,  50,  51,  52,  53,  54,  55,  56,  57,  58,  59
  60,  61,  62,  63,  64,  65,  66,  67,  68,  69,  70,  71,  72,  73,  74,  75
  76,  77,  78,  79,  80,  81,  82,  83,  84,  85,  86,  87,  88,  89,  90,  91
  92,  93,  94,  95,  96,  97,  98,  99, 100, 101, 102, 103, 104, 105, 106, 107
 108, 109, 110, 111, 112, 113, 114, 115, 116, 117, 118, 119, 120, 121, 122, 123
 124, 125, 126, 127, 128
*Elset, elset=L2-I_ID, generate
   24,  2400,    24
*Nset, nset=L1-I_OD
   1,   5, 251, 252, 253, 254, 255, 256, 257, 258, 259, 260, 261, 262, 263, 264
 265, 266, 267, 268, 269, 270, 271, 272, 273, 274, 275, 276, 277, 278, 279, 280
 281, 282, 283, 284, 285, 286, 287, 288, 289, 290, 291, 292, 293, 294, 295, 296
 297, 298, 299, 300, 301, 302, 303, 304, 305, 306, 307, 308, 309, 310, 311, 312
 313, 314, 315, 316, 317, 318, 319, 320, 321, 322, 323, 324, 325, 326, 327, 328
 329, 330, 331, 332, 333, 334, 335, 336, 337, 338, 339, 340, 341, 342, 343, 344
 345, 346, 347, 348, 349, 350, 351, 352, 353, 354, 355, 356, 357, 358, 359, 360
 361, 362, 363, 364, 365, 366, 367, 368, 369, 370, 371, 372, 373, 374, 375, 376
 377, 378, 379, 380, 381, 382, 383, 384, 385, 386, 387, 388, 389, 390, 391, 392
 393, 394, 395, 396, 397, 398, 399, 400, 401, 402, 403, 404, 405, 406, 407, 408
 409, 410, 411, 412, 413, 414, 415, 416, 417, 418, 419, 420, 421, 422, 423, 424
 425, 426, 427, 428, 429
*Elset, elset=L1-I_OD, generate
 2424,  6720,    24
*Nset, nset=L2-I_OD
   1,   4, 152, 153, 154, 155, 156, 157, 158, 159, 160, 161, 162, 163, 164, 165
 166, 167, 168, 169, 170, 171, 172, 173, 174, 175, 176, 177, 178, 179, 180, 181
 182, 183, 184, 185, 186, 187, 188, 189, 190, 191, 192, 193, 194, 195, 196, 197
 198, 199, 200, 201, 202, 203, 204, 205, 206, 207, 208, 209, 210, 211, 212, 213
 214, 215, 216, 217, 218, 219, 220, 221, 222, 223, 224, 225, 226, 227, 228, 229
 230, 231, 232, 233, 234, 235, 236, 237, 238, 239, 240, 241, 242, 243, 244, 245
 246, 247, 248, 249, 250
*Elset, elset=L2-I_OD, generate
    1,  2377,    24
*Nset, nset=L1-I_TOP
   5,   6, 430, 431, 432, 433, 434, 435, 436, 437, 438, 439, 440, 441, 442, 443
 444, 445, 446, 447, 448, 449, 450, 451, 452
*Elset, elset=L1-I_TOP, generate
 6697,  6720,     1
*Nset, nset=L2-I_TOP
  1,  2,  7,  8,  9, 10, 11, 12, 13, 14, 15, 16, 17, 18, 19, 20
 21, 22, 23, 24, 25, 26, 27, 28, 29
*Elset, elset=L2-I_TOP
    1,    2,    3,    4,    5,    6,    7,    8,    9,   10,   11,   12,   13,   14,   15,   16
   17,   18,   19,   20,   21,   22,   23,   24, 2401, 2402, 2403, 2404, 2405, 2406, 2407, 2408
 2409, 2410, 2411, 2412, 2413, 2414, 2415, 2416, 2417, 2418, 2419, 2420, 2421, 2422, 2423, 2424
*Nset, nset=L1-I
    1,    2,    5,    6,    7,    8,    9,   10,   11,   12,   13,   14,   15,   16,   17,   18
   19,   20,   21,   22,   23,   24,   25,   26,   27,   28,   29,  251,  252,  253,  254,  255
  256,  257,  258,  259,  260,  261,  262,  263,  264,  265,  266,  267,  268,  269,  270,  271
  272,  273,  274,  275,  276,  277,  278,  279,  280,  281,  282,  283,  284,  285,  286,  287
  288,  289,  290,  291,  292,  293,  294,  295,  296,  297,  298,  299,  300,  301,  302,  303
  304,  305,  306,  307,  308,  309,  310,  311,  312,  313,  314,  315,  316,  317,  318,  319
  320,  321,  322,  323,  324,  325,  326,  327,  328,  329,  330,  331,  332,  333,  334,  335
  336,  337,  338,  339,  340,  341,  342,  343,  344,  345,  346,  347,  348,  349,  350,  351
  352,  353,  354,  355,  356,  357,  358,  359,  360,  361,  362,  363,  364,  365,  366,  367
  368,  369,  370,  371,  372,  373,  374,  375,  376,  377,  378,  379,  380,  381,  382,  383
  384,  385,  386,  387,  388,  389,  390,  391,  392,  393,  394,  395,  396,  397,  398,  399
  400,  401,  402,  403,  404,  405,  406,  407,  408,  409,  410,  411,  412,  413,  414,  415
  416,  417,  418,  419,  420,  421,  422,  423,  424,  425,  426,  427,  428,  429,  430,  431
  432,  433,  434,  435,  436,  437,  438,  439,  440,  441,  442,  443,  444,  445,  446,  447
  448,  449,  450,  451,  452,  453,  454,  455,  456,  457,  458,  459,  460,  461,  462,  463
  464,  465,  466,  467,  468,  469,  470,  471,  472,  473,  474,  475,  476,  477,  478,  479
  480,  481,  482,  483,  484,  485,  486,  487,  488,  489,  490,  491,  492,  493,  494,  495
  496,  497,  498,  499,  500,  501,  502,  503,  504,  505,  506,  507,  508,  509,  510,  511
  512,  513,  514,  515,  516,  517,  518,  519,  520,  521,  522,  523,  524,  525,  526,  527
  528,  529,  530,  531,  532,  533,  534,  535,  536,  537,  538,  539,  540,  541,  542,  543
** ... 263 like lines cut
*Elset, elset=L1-I, generate
 2401,  6720,     1
*Nset, nset=L2-I
    1,    2,    3,    4,    7,    8,    9,   10,   11,   12,   13,   14,   15,   16,   17,   18
   19,   20,   21,   22,   23,   24,   25,   26,   27,   28,   29,   30,   31,   32,   33,   34
   35,   36,   37,   38,   39,   40,   41,   42,   43,   44,   45,   46,   47,   48,   49,   50
   51,   52,   53,   54,   55,   56,   57,   58,   59,   60,   61,   62,   63,   64,   65,   66
   67,   68,   69,   70,   71,   72,   73,   74,   75,   76,   77,   78,   79,   80,   81,   82
   83,   84,   85,   86,   87,   88,   89,   90,   91,   92,   93,   94,   95,   96,   97,   98
   99,  100,  101,  102,  103,  104,  105,  106,  107,  108,  109,  110,  111,  112,  113,  114
  115,  116,  117,  118,  119,  120,  121,  122,  123,  124,  125,  126,  127,  128,  129,  130
  131,  132,  133,  134,  135,  136,  137,  138,  139,  140,  141,  142,  143,  144,  145,  146
  147,  148,  149,  150,  151,  152,  153,  154,  155,  156,  157,  158,  159,  160,  161,  162
  163,  164,  165,  166,  167,  168,  169,  170,  171,  172,  173,  174,  175,  176,  177,  178
  179,  180,  181,  182,  183,  184,  185,  186,  187,  188,  189,  190,  191,  192,  193,  194
  195,  196,  197,  198,  199,  200,  201,  202,  203,  204,  205,  206,  207,  208,  209,  210
  211,  212,  213,  214,  215,  216,  217,  218,  219,  220,  221,  222,  223,  224,  225,  226
  227,  228,  229,  230,  231,  232,  233,  234,  235,  236,  237,  238,  239,  240,  241,  242
  243,  244,  245,  246,  247,  248,  249,  250,  632,  633,  634,  635,  636,  637,  638,  639
  640,  641,  642,  643,  644,  645,  646,  647,  648,  649,  650,  651,  652,  653,  654,  655
  656,  657,  658,  659,  660,  661,  662,  663,  664,  665,  666,  667,  668,  669,  670,  671
  672,  673,  674,  675,  676,  677,  678,  679,  680,  681,  682,  683,  684,  685,  686,  687
  688,  689,  690,  691,  692,  693,  694,  695,  696,  697,  698,  699,  700,  701,  702,  703
** ... 138 like lines cut
*Elset, elset=L2-I, generate
    1,  2400,     1
** Section: LAYER_02_HALITE_Section
*Solid Section, elset=L2-I, material=LAYER_02_HALITE
1.,
** Section: LAYER_01_SANDSTONE_Section
*Solid Section, elset=L1-I, material=LAYER_01_SANDSTONE
1.,
*End Instance
**  
*Nset, nset=ALL, instance=FLUID_INST, generate
    1,  1124,     1
*Nset, nset=ALL, instance=PIPE_INST, generate
    1,  1124,     1
*Nset, nset=ALL, instance=ROCK_INST, generate
    1,  7025,     1
*Elset, elset=ALL, instance=FLUID_INST, generate
   1,  840,    1
*Elset, elset=ALL, instance=PIPE_INST, generate
   1,  840,    1
*Elset, elset=ALL, instance=ROCK_INST, generate
    1,  6720,     1
*Nset, nset=FASEI, instance=FLUID_INST, generate
    1,  1124,     1
*Nset, nset=FASEI, instance=PIPE_INST, generate
    1,  1124,     1
*Elset, elset=FASEI, instance=FLUID_INST, generate
   1,  840,    1
*Elset, elset=FASEI, instance=PIPE_INST, generate
   1,  840,    1
*Nset, nset=FASEI_COMPLETED_WELL, instance=PIPE_INST
   2,   3,   6,   9,  10,  11,  12,  13,  14,  15,  16,  17,  18,  19,  20,  21
  22,  23,  24,  25,  26,  27,  28,  29,  30,  31,  32,  33,  34,  35,  36,  37
  38,  39,  40,  41,  42,  43,  44,  45,  46,  47,  48,  49,  50,  51,  52,  53
  54,  55,  56,  57,  58,  59,  60,  61,  62,  63,  64,  65,  66,  67,  68,  69
  70,  71,  72,  73,  74,  75,  76,  77,  78,  79,  80,  81,  82,  83,  84,  85
  86,  87,  88,  89,  90,  91,  92,  93,  94,  95,  96,  97,  98,  99, 100, 101
 102, 103, 104, 105, 106, 107, 390, 391, 392, 393, 394, 395, 396, 397, 398, 399
 400, 401, 402, 403, 404, 405, 406, 407, 408, 409, 410, 411, 412, 413, 414, 415
 416, 417, 418, 419, 420, 421, 422, 423, 424, 425, 426, 427, 428, 429, 430, 431
 432, 433, 434, 435, 436, 437, 438, 439, 440, 441, 442, 443, 444, 445, 446, 447
 448, 449, 450, 451, 452, 453, 454, 455, 456, 457, 458, 459, 460, 461, 462, 463
 464, 465, 466, 467, 468, 469, 470, 471, 472, 473, 474, 475, 476, 477, 478, 479
 480, 481, 482, 483, 484, 485, 486, 487, 488, 489, 490, 491, 492, 493, 494, 495
 496, 497, 498, 499, 500, 501, 502, 503, 504, 505, 506, 507, 508, 509, 510, 511
 512, 513, 514, 515, 516, 517, 518, 519, 520, 521, 522, 523, 524, 525, 526, 527
 528, 529, 530, 531, 532, 533, 534, 535, 536, 537, 538, 539, 540, 541, 542, 543
 544, 545, 546, 547, 548, 549, 550, 551, 552, 553, 554, 555, 556, 557, 558, 559
 560, 561, 562, 563, 564, 565, 566, 567, 568
*Elset, elset=FASEI_COMPLETED_WELL, instance=PIPE_INST
   3,   6,   9,  12,  15,  18,  21,  24,  27,  30,  33,  36,  39,  42,  45,  48
  51,  54,  57,  60,  63,  66,  69,  72,  75,  78,  81,  84,  87,  90,  93,  96
  99, 102, 105, 108, 111, 114, 117, 120, 123, 126, 129, 132, 135, 138, 141, 144
 147, 150, 153, 156, 159, 162, 165, 168, 171, 174, 177, 180, 183, 186, 189, 192
 195, 198, 201, 204, 207, 210, 213, 216, 219, 222, 225, 228, 231, 234, 237, 240
 243, 246, 249, 252, 255, 258, 261, 264, 267, 270, 273, 276, 279, 282, 285, 288
 291, 294, 297, 300, 301, 304, 307, 310, 313, 316, 319, 322, 325, 328, 331, 334
 337, 340, 343, 346, 349, 352, 355, 358, 361, 364, 367, 370, 373, 376, 379, 382
 385, 388, 391, 394, 397, 400, 403, 406, 409, 412, 415, 418, 421, 424, 427, 430
 433, 436, 439, 442, 445, 448, 451, 454, 457, 460, 463, 466, 469, 472, 475, 478
 481, 484, 487, 490, 493, 496, 499, 502, 505, 508, 511, 514, 517, 520, 523, 526
 529, 532, 535, 538, 541, 544, 547, 550, 553, 556, 559, 562, 565, 568, 571, 574
 577, 580, 583, 586, 589, 592, 595, 598, 601, 604, 607, 610, 613, 616, 619, 622
 625, 628, 631, 634, 637, 640, 643, 646, 649, 652, 655, 658, 661, 664, 667, 670
 673, 676, 679, 682, 685, 688, 691, 694, 697, 700, 703, 706, 709, 712, 715, 718
 721, 724, 727, 730, 733, 736, 739, 742, 745, 748, 751, 754, 757, 760, 763, 766
 769, 772, 775, 778, 781, 784, 787, 790, 793, 796, 799, 802, 805, 808, 811, 814
 817, 820, 823, 826, 829, 832, 835, 838
*Nset, nset=FASEI_OPEN_WELL, instance=ROCK_INST
   2,   3,   6,  30,  31,  32,  33,  34,  35,  36,  37,  38,  39,  40,  41,  42
  43,  44,  45,  46,  47,  48,  49,  50,  51,  52,  53,  54,  55,  56,  57,  58
  59,  60,  61,  62,  63,  64,  65,  66,  67,  68,  69,  70,  71,  72,  73,  74
  75,  76,  77,  78,  79,  80,  81,  82,  83,  84,  85,  86,  87,  88,  89,  90
  91,  92,  93,  94,  95,  96,  97,  98,  99, 100, 101, 102, 103, 104, 105, 106
 107, 108, 109, 110, 111, 112, 113, 114, 115, 116, 117, 118, 119, 120, 121, 122
 123, 124, 125, 126, 127, 128, 453, 454, 455, 456, 457, 458, 459, 460, 461, 462
 463, 464, 465, 466, 467, 468, 469, 470, 471, 472, 473, 474, 475, 476, 477, 478
 479, 480, 481, 482, 483, 484, 485, 486, 487, 488, 489, 490, 491, 492, 493, 494
 495, 496, 497, 498, 499, 500, 501, 502, 503, 504, 505, 506, 507, 508, 509, 510
 511, 512, 513, 514, 515, 516, 517, 518, 519, 520, 521, 522, 523, 524, 525, 526
 527, 528, 529, 530, 531, 532, 533, 534, 535, 536, 537, 538, 539, 540, 541, 542
 543, 544, 545, 546, 547, 548, 549, 550, 551, 552, 553, 554, 555, 556, 557, 558
 559, 560, 561, 562, 563, 564, 565, 566, 567, 568, 569, 570, 571, 572, 573, 574
 575, 576, 577, 578, 579, 580, 581, 582, 583, 584, 585, 586, 587, 588, 589, 590
 591, 592, 593, 594, 595, 596, 597, 598, 599, 600, 601, 602, 603, 604, 605, 606
 607, 608, 609, 610, 611, 612, 613, 614, 615, 616, 617, 618, 619, 620, 621, 622
 623, 624, 625, 626, 627, 628, 629, 630, 631
*Elset, elset=FASEI_OPEN_WELL, instance=ROCK_INST
   24,   48,   72,   96,  120,  144,  168,  192,  216,  240,  264,  288,  312,  336,  360,  384
  408,  432,  456,  480,  504,  528,  552,  576,  600,  624,  648,  672,  696,  720,  744,  768
  792,  816,  840,  864,  888,  912,  936,  960,  984, 1008, 1032, 1056, 1080, 1104, 1128, 1152
 1176, 1200, 1224, 1248, 1272, 1296, 1320, 1344, 1368, 1392, 1416, 1440, 1464, 1488, 1512, 1536
 1560, 1584, 1608, 1632, 1656, 1680, 1704, 1728, 1752, 1776, 1800, 1824, 1848, 1872, 1896, 1920
 1944, 1968, 1992, 2016, 2040, 2064, 2088, 2112, 2136, 2160, 2184, 2208, 2232, 2256, 2280, 2304
 2328, 2352, 2376, 2400, 2401, 2425, 2449, 2473, 2497, 2521, 2545, 2569, 2593, 2617, 2641, 2665
 2689, 2713, 2737, 2761, 2785, 2809, 2833, 2857, 2881, 2905, 2929, 2953, 2977, 3001, 3025, 3049
 3073, 3097, 3121, 3145, 3169, 3193, 3217, 3241, 3265, 3289, 3313, 3337, 3361, 3385, 3409, 3433
 3457, 3481, 3505, 3529, 3553, 3577, 3601, 3625, 3649, 3673, 3697, 3721, 3745, 3769, 3793, 3817
 3841, 3865, 3889, 3913, 3937, 3961, 3985, 4009, 4033, 4057, 4081, 4105, 4129, 4153, 4177, 4201
 4225, 4249, 4273, 4297, 4321, 4345, 4369, 4393, 4417, 4441, 4465, 4489, 4513, 4537, 4561, 4585
 4609, 4633, 4657, 4681, 4705, 4729, 4753, 4777, 4801, 4825, 4849, 4873, 4897, 4921, 4945, 4969
 4993, 5017, 5041, 5065, 5089, 5113, 5137, 5161, 5185, 5209, 5233, 5257, 5281, 5305, 5329, 5353
 5377, 5401, 5425, 5449, 5473, 5497, 5521, 5545, 5569, 5593, 5617, 5641, 5665, 5689, 5713, 5737
 5761, 5785, 5809, 5833, 5857, 5881, 5905, 5929, 5953, 5977, 6001, 6025, 6049, 6073, 6097, 6121
 6145, 6169, 6193, 6217, 6241, 6265, 6289, 6313, 6337, 6361, 6385, 6409, 6433, 6457, 6481, 6505
 6529, 6553, 6577, 6601, 6625, 6649, 6673, 6697
*Nset, nset=FASEI_WELL, instance=ROCK_INST
   2,   3,   6,  30,  31,  32,  33,  34,  35,  36,  37,  38,  39,  40,  41,  42
  43,  44,  45,  46,  47,  48,  49,  50,  51,  52,  53,  54,  55,  56,  57,  58
  59,  60,  61,  62,  63,  64,  65,  66,  67,  68,  69,  70,  71,  72,  73,  74
  75,  76,  77,  78,  79,  80,  81,  82,  83,  84,  85,  86,  87,  88,  89,  90
  91,  92,  93,  94,  95,  96,  97,  98,  99, 100, 101, 102, 103, 104, 105, 106
 107, 108, 109, 110, 111, 112, 113, 114, 115, 116, 117, 118, 119, 120, 121, 122
 123, 124, 125, 126, 127, 128, 453, 454, 455, 456, 457, 458, 459, 460, 461, 462
 463, 464, 465, 466, 467, 468, 469, 470, 471, 472, 473, 474, 475, 476, 477, 478
 479, 480, 481, 482, 483, 484, 485, 486, 487, 488, 489, 490, 491, 492, 493, 494
 495, 496, 497, 498, 499, 500, 501, 502, 503, 504, 505, 506, 507, 508, 509, 510
 511, 512, 513, 514, 515, 516, 517, 518, 519, 520, 521, 522, 523, 524, 525, 526
 527, 528, 529, 530, 531, 532, 533, 534, 535, 536, 537, 538, 539, 540, 541, 542
 543, 544, 545, 546, 547, 548, 549, 550, 551, 552, 553, 554, 555, 556, 557, 558
 559, 560, 561, 562, 563, 564, 565, 566, 567, 568, 569, 570, 571, 572, 573, 574
 575, 576, 577, 578, 579, 580, 581, 582, 583, 584, 585, 586, 587, 588, 589, 590
 591, 592, 593, 594, 595, 596, 597, 598, 599, 600, 601, 602, 603, 604, 605, 606
 607, 608, 609, 610, 611, 612, 613, 614, 615, 616, 617, 618, 619, 620, 621, 622
 623, 624, 625, 626, 627, 628, 629, 630, 631
*Elset, elset=FASEI_WELL, instance=ROCK_INST
   24,   48,   72,   96,  120,  144,  168,  192,  216,  240,  264,  288,  312,  336,  360,  384
  408,  432,  456,  480,  504,  528,  552,  576,  600,  624,  648,  672,  696,  720,  744,  768
  792,  816,  840,  864,  888,  912,  936,  960,  984, 1008, 1032, 1056, 1080, 1104, 1128, 1152
 1176, 1200, 1224, 1248, 1272, 1296, 1320, 1344, 1368, 1392, 1416, 1440, 1464, 1488, 1512, 1536
 1560, 1584, 1608, 1632, 1656, 1680, 1704, 1728, 1752, 1776, 1800, 1824, 1848, 1872, 1896, 1920
 1944, 1968, 1992, 2016, 2040, 2064, 2088, 2112, 2136, 2160, 2184, 2208, 2232, 2256, 2280, 2304
 2328, 2352, 2376, 2400, 2401, 2425, 2449, 2473, 2497, 2521, 2545, 2569, 2593, 2617, 2641, 2665
 2689, 2713, 2737, 2761, 2785, 2809, 2833, 2857, 2881, 2905, 2929, 2953, 2977, 3001, 3025, 3049
 3073, 3097, 3121, 3145, 3169, 3193, 3217, 3241, 3265, 3289, 3313, 3337, 3361, 3385, 3409, 3433
 3457, 3481, 3505, 3529, 3553, 3577, 3601, 3625, 3649, 3673, 3697, 3721, 3745, 3769, 3793, 3817
 3841, 3865, 3889, 3913, 3937, 3961, 3985, 4009, 4033, 4057, 4081, 4105, 4129, 4153, 4177, 4201
 4225, 4249, 4273, 4297, 4321, 4345, 4369, 4393, 4417, 4441, 4465, 4489, 4513, 4537, 4561, 4585
 4609, 4633, 4657, 4681, 4705, 4729, 4753, 4777, 4801, 4825, 4849, 4873, 4897, 4921, 4945, 4969
 4993, 5017, 5041, 5065, 5089, 5113, 5137, 5161, 5185, 5209, 5233, 5257, 5281, 5305, 5329, 5353
 5377, 5401, 5425, 5449, 5473, 5497, 5521, 5545, 5569, 5593, 5617, 5641, 5665, 5689, 5713, 5737
 5761, 5785, 5809, 5833, 5857, 5881, 5905, 5929, 5953, 5977, 6001, 6025, 6049, 6073, 6097, 6121
 6145, 6169, 6193, 6217, 6241, 6265, 6289, 6313, 6337, 6361, 6385, 6409, 6433, 6457, 6481, 6505
 6529, 6553, 6577, 6601, 6625, 6649, 6673, 6697
*Nset, nset=MESH_TT_ANNULARS, instance=FLUID_INST
   1,   2,   3,   4,   5,   6,   7,   8, 108, 109, 388, 389
*Elset, elset=MESH_TT_ANNULARS, instance=FLUID_INST
   1,   2,   3, 298, 299, 300, 301, 302, 303, 838, 839, 840
*Nset, nset=MESH_TT_PIPES, instance=PIPE_INST
   1,   2,   3,   4,   5,   6,   7,   8, 108, 109, 388, 389
*Elset, elset=MESH_TT_PIPES, instance=PIPE_INST
   1,   2,   3, 298, 299, 300, 301, 302, 303, 838, 839, 840
*Nset, nset=MESH_TT_ROCK, instance=ROCK_INST
   1,   2,   3,   4,   5,   6,   7,   8,   9,  10,  11,  12,  13,  14,  15,  16
  17,  18,  19,  20,  21,  22,  23,  24,  25,  26,  27,  28,  29, 129, 130, 131
 132, 133, 134, 135, 136, 137, 138, 139, 140, 141, 142, 143, 144, 145, 146, 147
 148, 149, 150, 151, 430, 431, 432, 433, 434, 435, 436, 437, 438, 439, 440, 441
 442, 443, 444, 445, 446, 447, 448, 449, 450, 451, 452
*Elset, elset=MESH_TT_ROCK, instance=ROCK_INST
    1,    2,    3,    4,    5,    6,    7,    8,    9,   10,   11,   12,   13,   14,   15,   16
   17,   18,   19,   20,   21,   22,   23,   24, 2377, 2378, 2379, 2380, 2381, 2382, 2383, 2384
 2385, 2386, 2387, 2388, 2389, 2390, 2391, 2392, 2393, 2394, 2395, 2396, 2397, 2398, 2399, 2400
 2401, 2402, 2403, 2404, 2405, 2406, 2407, 2408, 2409, 2410, 2411, 2412, 2413, 2414, 2415, 2416
 2417, 2418, 2419, 2420, 2421, 2422, 2423, 2424, 6697, 6698, 6699, 6700, 6701, 6702, 6703, 6704
 6705, 6706, 6707, 6708, 6709, 6710, 6711, 6712, 6713, 6714, 6715, 6716, 6717, 6718, 6719, 6720
*Nset, nset=MESH_VERTICAL, instance=FLUID_INST
   1,   2,   3,   4,   5,   6,   9,  10,  11,  12,  13,  14,  15,  16,  17,  18
  19,  20,  21,  22,  23,  24,  25,  26,  27,  28,  29,  30,  31,  32,  33,  34
  35,  36,  37,  38,  39,  40,  41,  42,  43,  44,  45,  46,  47,  48,  49,  50
  51,  52,  53,  54,  55,  56,  57,  58,  59,  60,  61,  62,  63,  64,  65,  66
  67,  68,  69,  70,  71,  72,  73,  74,  75,  76,  77,  78,  79,  80,  81,  82
  83,  84,  85,  86,  87,  88,  89,  90,  91,  92,  93,  94,  95,  96,  97,  98
  99, 100, 101, 102, 103, 104, 105, 106, 107, 110, 111, 112, 113, 114, 115, 116
 117, 118, 119, 120, 121, 122, 123, 124, 125, 126, 127, 128, 129, 130, 131, 132
 133, 134, 135, 136, 137, 138, 139, 140, 141, 142, 143, 144, 145, 146, 147, 148
 149, 150, 151, 152, 153, 154, 155, 156, 157, 158, 159, 160, 161, 162, 163, 164
 165, 166, 167, 168, 169, 170, 171, 172, 173, 174, 175, 176, 177, 178, 179, 180
 181, 182, 183, 184, 185, 186, 187, 188, 189, 190, 191, 192, 193, 194, 195, 196
 197, 198, 199, 200, 201, 202, 203, 204, 205, 206, 207, 208, 209, 210, 211, 212
 213, 214, 215, 216, 217, 218, 219, 220, 221, 222, 223, 224, 225, 226, 227, 228
 229, 230, 231, 232, 233, 234, 235, 236, 237, 238, 239, 240, 241, 242, 243, 244
 245, 246, 247, 248, 249, 250, 251, 252, 253, 254, 255, 256, 257, 258, 259, 260
 261, 262, 263, 264, 265, 266, 267, 268, 269, 270, 271, 272, 273, 274, 275, 276
 277, 278, 279, 280, 281, 282, 283, 284, 285, 286, 287, 288, 289, 290, 291, 292
 293, 294, 295, 296, 297, 298, 299, 300, 301, 302, 303, 304, 305, 306, 307, 308
 309, 310, 311, 312, 313, 314, 315, 316, 317, 318, 319, 320, 321, 322, 323, 324
** ... 16 like lines cut
*Nset, nset=MESH_VERTICAL, instance=PIPE_INST
   1,   2,   3,   4,   5,   6,   9,  10,  11,  12,  13,  14,  15,  16,  17,  18
  19,  20,  21,  22,  23,  24,  25,  26,  27,  28,  29,  30,  31,  32,  33,  34
  35,  36,  37,  38,  39,  40,  41,  42,  43,  44,  45,  46,  47,  48,  49,  50
  51,  52,  53,  54,  55,  56,  57,  58,  59,  60,  61,  62,  63,  64,  65,  66
  67,  68,  69,  70,  71,  72,  73,  74,  75,  76,  77,  78,  79,  80,  81,  82
  83,  84,  85,  86,  87,  88,  89,  90,  91,  92,  93,  94,  95,  96,  97,  98
  99, 100, 101, 102, 103, 104, 105, 106, 107, 110, 111, 112, 113, 114, 115, 116
 117, 118, 119, 120, 121, 122, 123, 124, 125, 126, 127, 128, 129, 130, 131, 132
 133, 134, 135, 136, 137, 138, 139, 140, 141, 142, 143, 144, 145, 146, 147, 148
 149, 150, 151, 152, 153, 154, 155, 156, 157, 158, 159, 160, 161, 162, 163, 164
 165, 166, 167, 168, 169, 170, 171, 172, 173, 174, 175, 176, 177, 178, 179, 180
 181, 182, 183, 184, 185, 186, 187, 188, 189, 190, 191, 192, 193, 194, 195, 196
 197, 198, 199, 200, 201, 202, 203, 204, 205, 206, 207, 208, 209, 210, 211, 212
 213, 214, 215, 216, 217, 218, 219, 220, 221, 222, 223, 224, 225, 226, 227, 228
 229, 230, 231, 232, 233, 234, 235, 236, 237, 238, 239, 240, 241, 242, 243, 244
 245, 246, 247, 248, 249, 250, 251, 252, 253, 254, 255, 256, 257, 258, 259, 260
 261, 262, 263, 264, 265, 266, 267, 268, 269, 270, 271, 272, 273, 274, 275, 276
 277, 278, 279, 280, 281, 282, 283, 284, 285, 286, 287, 288, 289, 290, 291, 292
 293, 294, 295, 296, 297, 298, 299, 300, 301, 302, 303, 304, 305, 306, 307, 308
 309, 310, 311, 312, 313, 314, 315, 316, 317, 318, 319, 320, 321, 322, 323, 324
** ... 16 like lines cut
*Nset, nset=MESH_VERTICAL, instance=ROCK_INST
   1,   2,   3,   4,   5,   6,  30,  31,  32,  33,  34,  35,  36,  37,  38,  39
  40,  41,  42,  43,  44,  45,  46,  47,  48,  49,  50,  51,  52,  53,  54,  55
  56,  57,  58,  59,  60,  61,  62,  63,  64,  65,  66,  67,  68,  69,  70,  71
  72,  73,  74,  75,  76,  77,  78,  79,  80,  81,  82,  83,  84,  85,  86,  87
  88,  89,  90,  91,  92,  93,  94,  95,  96,  97,  98,  99, 100, 101, 102, 103
 104, 105, 106, 107, 108, 109, 110, 111, 112, 113, 114, 115, 116, 117, 118, 119
 120, 121, 122, 123, 124, 125, 126, 127, 128, 152, 153, 154, 155, 156, 157, 158
 159, 160, 161, 162, 163, 164, 165, 166, 167, 168, 169, 170, 171, 172, 173, 174
 175, 176, 177, 178, 179, 180, 181, 182, 183, 184, 185, 186, 187, 188, 189, 190
 191, 192, 193, 194, 195, 196, 197, 198, 199, 200, 201, 202, 203, 204, 205, 206
 207, 208, 209, 210, 211, 212, 213, 214, 215, 216, 217, 218, 219, 220, 221, 222
 223, 224, 225, 226, 227, 228, 229, 230, 231, 232, 233, 234, 235, 236, 237, 238
 239, 240, 241, 242, 243, 244, 245, 246, 247, 248, 249, 250, 251, 252, 253, 254
 255, 256, 257, 258, 259, 260, 261, 262, 263, 264, 265, 266, 267, 268, 269, 270
 271, 272, 273, 274, 275, 276, 277, 278, 279, 280, 281, 282, 283, 284, 285, 286
 287, 288, 289, 290, 291, 292, 293, 294, 295, 296, 297, 298, 299, 300, 301, 302
 303, 304, 305, 306, 307, 308, 309, 310, 311, 312, 313, 314, 315, 316, 317, 318
 319, 320, 321, 322, 323, 324, 325, 326, 327, 328, 329, 330, 331, 332, 333, 334
 335, 336, 337, 338, 339, 340, 341, 342, 343, 344, 345, 346, 347, 348, 349, 350
 351, 352, 353, 354, 355, 356, 357, 358, 359, 360, 361, 362, 363, 364, 365, 366
** ... 16 like lines cut
*Elset, elset=MESH_VERTICAL, instance=FLUID_INST
   1,   3,   4,   6,   7,   9,  10,  12,  13,  15,  16,  18,  19,  21,  22,  24
  25,  27,  28,  30,  31,  33,  34,  36,  37,  39,  40,  42,  43,  45,  46,  48
  49,  51,  52,  54,  55,  57,  58,  60,  61,  63,  64,  66,  67,  69,  70,  72
  73,  75,  76,  78,  79,  81,  82,  84,  85,  87,  88,  90,  91,  93,  94,  96
  97,  99, 100, 102, 103, 105, 106, 108, 109, 111, 112, 114, 115, 117, 118, 120
 121, 123, 124, 126, 127, 129, 130, 132, 133, 135, 136, 138, 139, 141, 142, 144
 145, 147, 148, 150, 151, 153, 154, 156, 157, 159, 160, 162, 163, 165, 166, 168
 169, 171, 172, 174, 175, 177, 178, 180, 181, 183, 184, 186, 187, 189, 190, 192
 193, 195, 196, 198, 199, 201, 202, 204, 205, 207, 208, 210, 211, 213, 214, 216
 217, 219, 220, 222, 223, 225, 226, 228, 229, 231, 232, 234, 235, 237, 238, 240
 241, 243, 244, 246, 247, 249, 250, 252, 253, 255, 256, 258, 259, 261, 262, 264
 265, 267, 268, 270, 271, 273, 274, 276, 277, 279, 280, 282, 283, 285, 286, 288
 289, 291, 292, 294, 295, 297, 298, 300, 301, 303, 304, 306, 307, 309, 310, 312
 313, 315, 316, 318, 319, 321, 322, 324, 325, 327, 328, 330, 331, 333, 334, 336
 337, 339, 340, 342, 343, 345, 346, 348, 349, 351, 352, 354, 355, 357, 358, 360
 361, 363, 364, 366, 367, 369, 370, 372, 373, 375, 376, 378, 379, 381, 382, 384
 385, 387, 388, 390, 391, 393, 394, 396, 397, 399, 400, 402, 403, 405, 406, 408
 409, 411, 412, 414, 415, 417, 418, 420, 421, 423, 424, 426, 427, 429, 430, 432
 433, 435, 436, 438, 439, 441, 442, 444, 445, 447, 448, 450, 451, 453, 454, 456
 457, 459, 460, 462, 463, 465, 466, 468, 469, 471, 472, 474, 475, 477, 478, 480
** ... 15 like lines cut
*Elset, elset=MESH_VERTICAL, instance=PIPE_INST
   1,   3,   4,   6,   7,   9,  10,  12,  13,  15,  16,  18,  19,  21,  22,  24
  25,  27,  28,  30,  31,  33,  34,  36,  37,  39,  40,  42,  43,  45,  46,  48
  49,  51,  52,  54,  55,  57,  58,  60,  61,  63,  64,  66,  67,  69,  70,  72
  73,  75,  76,  78,  79,  81,  82,  84,  85,  87,  88,  90,  91,  93,  94,  96
  97,  99, 100, 102, 103, 105, 106, 108, 109, 111, 112, 114, 115, 117, 118, 120
 121, 123, 124, 126, 127, 129, 130, 132, 133, 135, 136, 138, 139, 141, 142, 144
 145, 147, 148, 150, 151, 153, 154, 156, 157, 159, 160, 162, 163, 165, 166, 168
 169, 171, 172, 174, 175, 177, 178, 180, 181, 183, 184, 186, 187, 189, 190, 192
 193, 195, 196, 198, 199, 201, 202, 204, 205, 207, 208, 210, 211, 213, 214, 216
 217, 219, 220, 222, 223, 225, 226, 228, 229, 231, 232, 234, 235, 237, 238, 240
 241, 243, 244, 246, 247, 249, 250, 252, 253, 255, 256, 258, 259, 261, 262, 264
 265, 267, 268, 270, 271, 273, 274, 276, 277, 279, 280, 282, 283, 285, 286, 288
 289, 291, 292, 294, 295, 297, 298, 300, 301, 303, 304, 306, 307, 309, 310, 312
 313, 315, 316, 318, 319, 321, 322, 324, 325, 327, 328, 330, 331, 333, 334, 336
 337, 339, 340, 342, 343, 345, 346, 348, 349, 351, 352, 354, 355, 357, 358, 360
 361, 363, 364, 366, 367, 369, 370, 372, 373, 375, 376, 378, 379, 381, 382, 384
 385, 387, 388, 390, 391, 393, 394, 396, 397, 399, 400, 402, 403, 405, 406, 408
 409, 411, 412, 414, 415, 417, 418, 420, 421, 423, 424, 426, 427, 429, 430, 432
 433, 435, 436, 438, 439, 441, 442, 444, 445, 447, 448, 450, 451, 453, 454, 456
 457, 459, 460, 462, 463, 465, 466, 468, 469, 471, 472, 474, 475, 477, 478, 480
** ... 15 like lines cut
*Elset, elset=MESH_VERTICAL, instance=ROCK_INST
    1,   24,   25,   48,   49,   72,   73,   96,   97,  120,  121,  144,  145,  168,  169,  192
  193,  216,  217,  240,  241,  264,  265,  288,  289,  312,  313,  336,  337,  360,  361,  384
  385,  408,  409,  432,  433,  456,  457,  480,  481,  504,  505,  528,  529,  552,  553,  576
  577,  600,  601,  624,  625,  648,  649,  672,  673,  696,  697,  720,  721,  744,  745,  768
  769,  792,  793,  816,  817,  840,  841,  864,  865,  888,  889,  912,  913,  936,  937,  960
  961,  984,  985, 1008, 1009, 1032, 1033, 1056, 1057, 1080, 1081, 1104, 1105, 1128, 1129, 1152
 1153, 1176, 1177, 1200, 1201, 1224, 1225, 1248, 1249, 1272, 1273, 1296, 1297, 1320, 1321, 1344
 1345, 1368, 1369, 1392, 1393, 1416, 1417, 1440, 1441, 1464, 1465, 1488, 1489, 1512, 1513, 1536
 1537, 1560, 1561, 1584, 1585, 1608, 1609, 1632, 1633, 1656, 1657, 1680, 1681, 1704, 1705, 1728
 1729, 1752, 1753, 1776, 1777, 1800, 1801, 1824, 1825, 1848, 1849, 1872, 1873, 1896, 1897, 1920
 1921, 1944, 1945, 1968, 1969, 1992, 1993, 2016, 2017, 2040, 2041, 2064, 2065, 2088, 2089, 2112
 2113, 2136, 2137, 2160, 2161, 2184, 2185, 2208, 2209, 2232, 2233, 2256, 2257, 2280, 2281, 2304
 2305, 2328, 2329, 2352, 2353, 2376, 2377, 2400, 2401, 2424, 2425, 2448, 2449, 2472, 2473, 2496
 2497, 2520, 2521, 2544, 2545, 2568, 2569, 2592, 2593, 2616, 2617, 2640, 2641, 2664, 2665, 2688
 2689, 2712, 2713, 2736, 2737, 2760, 2761, 2784, 2785, 2808, 2809, 2832, 2833, 2856, 2857, 2880
 2881, 2904, 2905, 2928, 2929, 2952, 2953, 2976, 2977, 3000, 3001, 3024, 3025, 3048, 3049, 3072
 3073, 3096, 3097, 3120, 3121, 3144, 3145, 3168, 3169, 3192, 3193, 3216, 3217, 3240, 3241, 3264
 3265, 3288, 3289, 3312, 3313, 3336, 3337, 3360, 3361, 3384, 3385, 3408, 3409, 3432, 3433, 3456
 3457, 3480, 3481, 3504, 3505, 3528, 3529, 3552, 3553, 3576, 3577, 3600, 3601, 3624, 3625, 3648
 3649, 3672, 3673, 3696, 3697, 3720, 3721, 3744, 3745, 3768, 3769, 3792, 3793, 3816, 3817, 3840
** ... 15 like lines cut
*Nset, nset=ROCK_BC, instance=ROCK_INST
   1,   4,   5, 152, 153, 154, 155, 156, 157, 158, 159, 160, 161, 162, 163, 164
 165, 166, 167, 168, 169, 170, 171, 172, 173, 174, 175, 176, 177, 178, 179, 180
 181, 182, 183, 184, 185, 186, 187, 188, 189, 190, 191, 192, 193, 194, 195, 196
 197, 198, 199, 200, 201, 202, 203, 204, 205, 206, 207, 208, 209, 210, 211, 212
 213, 214, 215, 216, 217, 218, 219, 220, 221, 222, 223, 224, 225, 226, 227, 228
 229, 230, 231, 232, 233, 234, 235, 236, 237, 238, 239, 240, 241, 242, 243, 244
 245, 246, 247, 248, 249, 250, 251, 252, 253, 254, 255, 256, 257, 258, 259, 260
 261, 262, 263, 264, 265, 266, 267, 268, 269, 270, 271, 272, 273, 274, 275, 276
 277, 278, 279, 280, 281, 282, 283, 284, 285, 286, 287, 288, 289, 290, 291, 292
 293, 294, 295, 296, 297, 298, 299, 300, 301, 302, 303, 304, 305, 306, 307, 308
 309, 310, 311, 312, 313, 314, 315, 316, 317, 318, 319, 320, 321, 322, 323, 324
 325, 326, 327, 328, 329, 330, 331, 332, 333, 334, 335, 336, 337, 338, 339, 340
 341, 342, 343, 344, 345, 346, 347, 348, 349, 350, 351, 352, 353, 354, 355, 356
 357, 358, 359, 360, 361, 362, 363, 364, 365, 366, 367, 368, 369, 370, 371, 372
 373, 374, 375, 376, 377, 378, 379, 380, 381, 382, 383, 384, 385, 386, 387, 388
 389, 390, 391, 392, 393, 394, 395, 396, 397, 398, 399, 400, 401, 402, 403, 404
 405, 406, 407, 408, 409, 410, 411, 412, 413, 414, 415, 416, 417, 418, 419, 420
 421, 422, 423, 424, 425, 426, 427, 428, 429
*Elset, elset=ROCK_BC, instance=ROCK_INST
    1,   25,   49,   73,   97,  121,  145,  169,  193,  217,  241,  265,  289,  313,  337,  361
  385,  409,  433,  457,  481,  505,  529,  553,  577,  601,  625,  649,  673,  697,  721,  745
  769,  793,  817,  841,  865,  889,  913,  937,  961,  985, 1009, 1033, 1057, 1081, 1105, 1129
 1153, 1177, 1201, 1225, 1249, 1273, 1297, 1321, 1345, 1369, 1393, 1417, 1441, 1465, 1489, 1513
 1537, 1561, 1585, 1609, 1633, 1657, 1681, 1705, 1729, 1753, 1777, 1801, 1825, 1849, 1873, 1897
 1921, 1945, 1969, 1993, 2017, 2041, 2065, 2089, 2113, 2137, 2161, 2185, 2209, 2233, 2257, 2281
 2305, 2329, 2353, 2377, 2424, 2448, 2472, 2496, 2520, 2544, 2568, 2592, 2616, 2640, 2664, 2688
 2712, 2736, 2760, 2784, 2808, 2832, 2856, 2880, 2904, 2928, 2952, 2976, 3000, 3024, 3048, 3072
 3096, 3120, 3144, 3168, 3192, 3216, 3240, 3264, 3288, 3312, 3336, 3360, 3384, 3408, 3432, 3456
 3480, 3504, 3528, 3552, 3576, 3600, 3624, 3648, 3672, 3696, 3720, 3744, 3768, 3792, 3816, 3840
 3864, 3888, 3912, 3936, 3960, 3984, 4008, 4032, 4056, 4080, 4104, 4128, 4152, 4176, 4200, 4224
 4248, 4272, 4296, 4320, 4344, 4368, 4392, 4416, 4440, 4464, 4488, 4512, 4536, 4560, 4584, 4608
 4632, 4656, 4680, 4704, 4728, 4752, 4776, 4800, 4824, 4848, 4872, 4896, 4920, 4944, 4968, 4992
 5016, 5040, 5064, 5088, 5112, 5136, 5160, 5184, 5208, 5232, 5256, 5280, 5304, 5328, 5352, 5376
 5400, 5424, 5448, 5472, 5496, 5520, 5544, 5568, 5592, 5616, 5640, 5664, 5688, 5712, 5736, 5760
 5784, 5808, 5832, 5856, 5880, 5904, 5928, 5952, 5976, 6000, 6024, 6048, 6072, 6096, 6120, 6144
 6168, 6192, 6216, 6240, 6264, 6288, 6312, 6336, 6360, 6384, 6408, 6432, 6456, 6480, 6504, 6528
 6552, 6576, 6600, 6624, 6648, 6672, 6696, 6720
*Nset, nset=ROCK_OUTPUT, instance=ROCK_INST, generate
    1,  7025,     1
*Elset, elset=ROCK_OUTPUT, instance=ROCK_INST, generate
    1,  6720,     1
*Nset, nset=YSYM_BASE, instance=FLUID_INST
   3,   4, 108, 109
*Nset, nset=YSYM_BASE, instance=PIPE_INST
   3,   4, 108, 109
*Nset, nset=YSYM_BASE, instance=ROCK_INST
   3,   4, 129, 130, 131, 132, 133, 134, 135, 136, 137, 138, 139, 140, 141, 142
 143, 144, 145, 146, 147, 148, 149, 150, 151
*Elset, elset=YSYM_BASE, instance=FLUID_INST, generate
 298,  300,    1
*Elset, elset=YSYM_BASE, instance=PIPE_INST, generate
 298,  300,    1
*Elset, elset=YSYM_BASE, instance=ROCK_INST, generate
 2377,  2400,     1
*Nset, nset=YSYM_TOP, instance=FLUID_INST
   5,   6, 388, 389
*Nset, nset=YSYM_TOP, instance=PIPE_INST
   5,   6, 388, 389
*Nset, nset=YSYM_TOP, instance=ROCK_INST
   5,   6, 430, 431, 432, 433, 434, 435, 436, 437, 438, 439, 440, 441, 442, 443
 444, 445, 446, 447, 448, 449, 450, 451, 452
*Elset, elset=YSYM_TOP, instance=FLUID_INST, generate
 838,  840,    1
*Elset, elset=YSYM_TOP, instance=PIPE_INST, generate
 838,  840,    1
*Elset, elset=YSYM_TOP, instance=ROCK_INST, generate
 6697,  6720,     1
*Elset, elset=_FASEI_ANNULAR_S2, internal, instance=FLUID_INST, generate
   3,  840,    3
*Elset, elset=_FASEI_ANNULAR_S3, internal, instance=FLUID_INST
 298, 299, 300, 838, 839, 840
*Elset, elset=_FASEI_ANNULAR_S4, internal, instance=FLUID_INST, generate
   1,  838,    3
*Surface, type=ELEMENT, name=FASEI_ANNULAR
_FASEI_ANNULAR_S2, S2
_FASEI_ANNULAR_S3, S3
_FASEI_ANNULAR_S4, S4
*Elset, elset=_FASEI_COMPLETED_WELL_S2, internal, instance=PIPE_INST, generate
   3,  300,    3
*Elset, elset=_FASEI_COMPLETED_WELL_S4, internal, instance=PIPE_INST, generate
 301,  838,    3
*Surface, type=ELEMENT, name=FASEI_COMPLETED_WELL
_FASEI_COMPLETED_WELL_S2, S2
_FASEI_COMPLETED_WELL_S4, S4
*Elset, elset=_FASEI_FLUIDO_S4, internal, instance=PIPE_INST, generate
   1,  298,    3
*Elset, elset=_FASEI_FLUIDO_S4, internal, instance=ROCK_INST, generate
 2401,  6697,    24
*Elset, elset=_FASEI_FLUIDO_S2, internal, instance=PIPE_INST, generate
 303,  840,    3
*Elset, elset=_FASEI_FLUIDO_S2, internal, instance=ROCK_INST, generate
   24,  2400,    24
*Surface, type=ELEMENT, name=FASEI_FLUIDO
_FASEI_FLUIDO_S4, S4
_FASEI_FLUIDO_S2, S2
*Elset, elset=_FASEI_MASTER_S4, internal, instance=PIPE_INST, generate
   1,  298,    3
*Elset, elset=_FASEI_MASTER_S2, internal, instance=PIPE_INST, generate
 303,  840,    3
*Surface, type=ELEMENT, name=FASEI_MASTER
_FASEI_MASTER_S4, S4
_FASEI_MASTER_S2, S2
*Elset, elset=_FASEI_OPEN_WELL_S2, internal, instance=ROCK_INST, generate
   24,  2400,    24
*Elset, elset=_FASEI_OPEN_WELL_S4, internal, instance=ROCK_INST, generate
 2401,  6697,    24
*Surface, type=ELEMENT, name=FASEI_OPEN_WELL
_FASEI_OPEN_WELL_S2, S2
_FASEI_OPEN_WELL_S4, S4
*Elset, elset=_FASEI_REV_S2, internal, instance=PIPE_INST, generate
   3,  840,    3
*Elset, elset=_FASEI_REV_S3, internal, instance=PIPE_INST
 298, 299, 300, 838, 839, 840
*Elset, elset=_FASEI_REV_S4, internal, instance=PIPE_INST, generate
   1,  838,    3
*Surface, type=ELEMENT, name=FASEI_REV
_FASEI_REV_S2, S2
_FASEI_REV_S3, S3
_FASEI_REV_S4, S4
*Elset, elset=_FASEI_WELL_S2, internal, instance=ROCK_INST, generate
   24,  2400,    24
*Elset, elset=_FASEI_WELL_S4, internal, instance=ROCK_INST, generate
 2401,  6697,    24
*Surface, type=ELEMENT, name=FASEI_WELL
_FASEI_WELL_S2, S2
_FASEI_WELL_S4, S4
*Surface, type=NODE, name=ROCK_INST_FASEI_SLAVE_CNS_, internal
ROCK_INST.FASEI_SLAVE, 1.
*End Assembly
** 
** MATERIALS
** 
*Material, name=FLUID
*Conductivity
 0.702,
*Density
1.,
*Elastic
10000.,0.
*Specific Heat
2060.,
*Material, name=LAYER_01_SANDSTONE
*Conductivity
 1.869,
*Density
 2299.92,
*Elastic
 2.4062e+10, 0.25
*Expansion
 1e-05,
*Specific Heat
 0.209946,
*Mohr Coulomb
30., 7.5
*Mohr Coulomb Hardening
 2.00017e+07,0.
*Material, name=LAYER_02_HALITE
*Conductivity
 5.55,
*Creep, law=DOUBLE POWER
 0.0077864,    6042.9,      2.94, 0.0076093,    6042.9,      8.15,  1.03e+07
*Density
 2169.93,
*Elastic
 2.04e+10, 0.36
*Expansion
 1e-05,
*Specific Heat
 0.209946,
*Material, name=STEEL
*Conductivity
 45.3452,
*Density
7935.,
*Elastic
 2.06843e+11, 0.3
*Expansion
 0.0001242,
*Specific Heat
 460.9,
** 
** INTERACTION PROPERTIES
** 
*Surface Interaction, name=C_FASEI
1.,
*Friction, slip tolerance=0.005
 0.5,
*Surface Behavior, pressure-overclosure=HARD
*Time Points, name=timePoint
1., 3600., 7200., 14400., 28800., 57600., 86400., 172800.
345600., 691200., 1.3824e+06, 2.7648e+06, 5.5296e+06, 1.10592e+07, 2.21184e+07, 3.1536e+07
6.3072e+07, 1.26144e+08, 2.52288e+08, 5.04576e+08, 9.4608e+08
** 
** PHYSICAL CONSTANTS
** 
*Physical Constants, absolute zero=0., stefan boltzmann=5.67037e-08
** 
** BOUNDARY CONDITIONS
** 
** Name: FIX_FASEI_WELL Type: Symmetry/Antisymmetry/Encastre
*Boundary
FASEI_OPEN_WELL, XSYMM
** Name: PIN_FASEI Type: Symmetry/Antisymmetry/Encastre
*Boundary
PIPE_INST.FASEI_REV, PINNED
** Name: XSYM_ROCK_BC Type: Symmetry/Antisymmetry/Encastre
*Boundary
ROCK_BC, XSYMM
** Name: YSYM_BASE Type: Symmetry/Antisymmetry/Encastre
*Boundary
YSYM_BASE, YSYMM
** Name: YSYM_TOP Type: Symmetry/Antisymmetry/Encastre
*Boundary
YSYM_TOP, YSYMM
** 
** PREDEFINED FIELDS
** 
** Name: NT_FASEI   Type: Temperature Using Field: Geotermico
*Initial Conditions, type=TEMPERATURE
FLUID_INST.1, 311.253
FLUID_INST.2, 311.253
FLUID_INST.3, 321.857
FLUID_INST.4, 321.857
FLUID_INST.5, 292.123
FLUID_INST.6, 292.123
FLUID_INST.7, 311.253
FLUID_INST.8, 311.253
FLUID_INST.9, 311.359
FLUID_INST.10, 311.466
FLUID_INST.11, 311.573
FLUID_INST.12, 311.679
FLUID_INST.13, 311.786
FLUID_INST.14, 311.892
FLUID_INST.15, 311.999
FLUID_INST.16, 312.105
FLUID_INST.17, 312.212
FLUID_INST.18, 312.319
FLUID_INST.19, 312.425
FLUID_INST.20, 312.532
** ... 1104 like lines cut
PIPE_INST.1, 311.253
PIPE_INST.2, 311.253
PIPE_INST.3, 321.857
PIPE_INST.4, 321.857
PIPE_INST.5, 292.123
PIPE_INST.6, 292.123
PIPE_INST.7, 311.253
PIPE_INST.8, 311.253
PIPE_INST.9, 311.359
PIPE_INST.10, 311.466
PIPE_INST.11, 311.573
PIPE_INST.12, 311.679
PIPE_INST.13, 311.786
PIPE_INST.14, 311.892
PIPE_INST.15, 311.999
PIPE_INST.16, 312.105
PIPE_INST.17, 312.212
PIPE_INST.18, 312.319
PIPE_INST.19, 312.425
PIPE_INST.20, 312.532
** ... 1104 like lines cut
** Name: NT_FASEI_ID   Type: Temperature Using Field: Geotermico
*Initial Conditions, type=TEMPERATURE
PIPE_INST.2, 311.253
PIPE_INST.3, 321.857
PIPE_INST.6, 292.123
PIPE_INST.9, 311.359
PIPE_INST.10, 311.466
PIPE_INST.11, 311.573
PIPE_INST.12, 311.679
PIPE_INST.13, 311.786
PIPE_INST.14, 311.892
PIPE_INST.15, 311.999
PIPE_INST.16, 312.105
PIPE_INST.17, 312.212
PIPE_INST.18, 312.319
PIPE_INST.19, 312.425
PIPE_INST.20, 312.532
PIPE_INST.21, 312.638
PIPE_INST.22, 312.745
PIPE_INST.23, 312.851
PIPE_INST.24, 312.958
PIPE_INST.25, 313.065
** ... 261 like lines cut
** Name: NT_L1-I   Type: Temperature Using Field: NT_L1-I
*Initial Conditions, type=TEMPERATURE
ROCK_INST.1, 311.221
ROCK_INST.2, 311.221
ROCK_INST.5, 292.04
ROCK_INST.6, 292.04
ROCK_INST.7, 311.221
ROCK_INST.8, 311.221
ROCK_INST.9, 311.221
ROCK_INST.10, 311.221
ROCK_INST.11, 311.221
ROCK_INST.12, 311.221
ROCK_INST.13, 311.221
ROCK_INST.14, 311.221
ROCK_INST.15, 311.221
ROCK_INST.16, 311.221
ROCK_INST.17, 311.221
ROCK_INST.18, 311.221
ROCK_INST.19, 311.221
ROCK_INST.20, 311.221
ROCK_INST.21, 311.221
ROCK_INST.22, 311.221
** ... 4505 like lines cut
** Name: NT_L1-I_OD   Type: Temperature Using Field: NT_L1-I
*Initial Conditions, type=TEMPERATURE
ROCK_INST.1, 311.221
ROCK_INST.5, 292.04
ROCK_INST.251, 311.114
ROCK_INST.252, 311.008
ROCK_INST.253, 310.901
ROCK_INST.254, 310.795
ROCK_INST.255, 310.688
ROCK_INST.256, 310.582
ROCK_INST.257, 310.475
ROCK_INST.258, 310.368
ROCK_INST.259, 310.262
ROCK_INST.260, 310.155
ROCK_INST.261, 310.049
ROCK_INST.262, 309.942
ROCK_INST.263, 309.836
ROCK_INST.264, 309.729
ROCK_INST.265, 309.622
ROCK_INST.266, 309.516
ROCK_INST.267, 309.409
ROCK_INST.268, 309.303
** ... 161 like lines cut
** Name: NT_L2-I   Type: Temperature Using Field: NT_L2-I
*Initial Conditions, type=TEMPERATURE
ROCK_INST.1, 311.206
ROCK_INST.2, 311.206
ROCK_INST.3, 321.861
ROCK_INST.4, 321.861
ROCK_INST.7, 311.206
ROCK_INST.8, 311.206
ROCK_INST.9, 311.206
ROCK_INST.10, 311.206
ROCK_INST.11, 311.206
ROCK_INST.12, 311.206
ROCK_INST.13, 311.206
ROCK_INST.14, 311.206
ROCK_INST.15, 311.206
ROCK_INST.16, 311.206
ROCK_INST.17, 311.206
ROCK_INST.18, 311.206
ROCK_INST.19, 311.206
ROCK_INST.20, 311.206
ROCK_INST.21, 311.206
ROCK_INST.22, 311.206
** ... 2505 like lines cut
** Name: NT_L2-I_OD   Type: Temperature Using Field: NT_L2-I
*Initial Conditions, type=TEMPERATURE
ROCK_INST.1, 311.206
ROCK_INST.4, 321.861
ROCK_INST.152, 321.755
ROCK_INST.153, 321.648
ROCK_INST.154, 321.542
ROCK_INST.155, 321.435
ROCK_INST.156, 321.328
ROCK_INST.157, 321.222
ROCK_INST.158, 321.115
ROCK_INST.159, 321.009
ROCK_INST.160, 320.902
ROCK_INST.161, 320.796
ROCK_INST.162, 320.689
ROCK_INST.163, 320.583
ROCK_INST.164, 320.476
ROCK_INST.165, 320.369
ROCK_INST.166, 320.263
ROCK_INST.167, 320.156
ROCK_INST.168, 320.05
ROCK_INST.169, 319.943
** ... 81 like lines cut
** Name: S_FASEI_REV   Type: Geostatic stress
*Initial Conditions, type=STRESS, GEOSTATIC
PIPE_INST.FASEI_REV, 1.46995e+08, -2700., 3.80162e+07, -4100., 0., 0.
** Name: S_L1-I   Type: Geostatic stress
*Initial Conditions, type=STRESS, GEOSTATIC
ROCK_INST.L1-I, -3.57754e+07, -2700., -5.60815e+07, -3600., 1., 1.
** Name: S_L2-I   Type: Geostatic stress
*Initial Conditions, type=STRESS, GEOSTATIC
ROCK_INST.L2-I, -5.60815e+07, -3600., -6.6725e+07, -4100., 1., 1.
** 
** INTERACTIONS
** 
** Interaction: C_FASEI
*Contact Pair, interaction=C_FASEI, type=SURFACE TO SURFACE
ROCK_INST_FASEI_SLAVE_CNS_, FASEI_MASTER
** ----------------------------------------------------------------
** 
** STEP: Geostatic
** 
*Step, name=Geostatic, nlgeom=YES
*Geostatic
** 
** LOADS
** 
** Name: GRAVITY   Type: Gravity
*Dload, op=NEW
, GRAV, 9.81, , -1.
** 
** INTERACTIONS
** 
** Interaction: C_FASEI
*Model Change, type=CONTACT PAIR, remove
ROCK_INST_FASEI_SLAVE_CNS_, FASEI_MASTER
** Interaction: MC_FASEI_FLUIDO
*Model Change, remove
FLUID_INST.FASEI_FLUIDO, 
** Interaction: MC_FASEI_REV
*Model Change, remove
PIPE_INST.FASEI_REV, 
** 
** OUTPUT REQUESTS
** 
*Restart, write, frequency=0
** 
** FIELD OUTPUT: FASEI_REV
** 
*Output, field
*Node Output, nset=PIPE_INST.FASEI_REV
NT, U
*Element Output, elset=PIPE_INST.FASEI_REV, directions=YES
E, MISES, PE, S, PEEQ
** 
** FIELD OUTPUT: ROCK_OUTPUT
** 
*Node Output, nset=ROCK_OUTPUT
U, 
*Element Output, elset=ROCK_OUTPUT, directions=YES
TEMP, 
*Output, history, frequency=0
*End Step
** ----------------------------------------------------------------
** 
** STEP: Transition
** 
*Step, name=Transition, nlgeom=YES
*Static
1., 2., 2e-05, 2.
** 
** LOADS
** 
** Name: GRAVITY   Type: Gravity
*Dload, op=NEW
, GRAV, 9.81, , -1.
** 
** OUTPUT REQUESTS
** 
*Restart, write, frequency=0
** 
** FIELD OUTPUT: FASEI_REV
** 
*Output, field, time points=timePoint
*Node Output, nset=PIPE_INST.FASEI_REV
NT, U
*Element Output, elset=PIPE_INST.FASEI_REV, directions=YES
E, MISES, PE, S, PEEQ
** 
** FIELD OUTPUT: ROCK_OUTPUT
** 
*Node Output, nset=ROCK_OUTPUT
U, 
*Element Output, elset=ROCK_OUTPUT, directions=YES
TEMP, 
*Output, history, frequency=0
*End Step
** ----------------------------------------------------------------
** 
** STEP: TempDefine
** 
*Step, name=TempDefine, nlgeom=YES
*Static
1., 3., 3e-05, 3.
** 
** LOADS
** 
** Name: GRAVITY   Type: Gravity
*Dload, op=NEW
, GRAV, 9.81, , -1.
** 
** OUTPUT REQUESTS
** 
*Restart, write, frequency=0
** 
** FIELD OUTPUT: FASEI_REV
** 
*Output, field, time points=timePoint
*Node Output, nset=PIPE_INST.FASEI_REV
NT, U
*Element Output, elset=PIPE_INST.FASEI_REV, directions=YES
E, MISES, PE, S, PEEQ
** 
** FIELD OUTPUT: ROCK_OUTPUT
** 
*Node Output, nset=ROCK_OUTPUT
U, 
*Element Output, elset=ROCK_OUTPUT, directions=YES
TEMP, 
*Output, history, frequency=0
*End Step
** ----------------------------------------------------------------
** 
** STEP: Perf_10_375
** 
*Step, name=Perf_10_375, nlgeom=YES
*Static
1., 1., 1e-05, 1.
** 
** BOUNDARY CONDITIONS
** 
** Name: FIX_FASEI_WELL Type: Symmetry/Antisymmetry/Encastre
*Boundary, op=NEW
** Name: PIN_FASEI Type: Symmetry/Antisymmetry/Encastre
*Boundary, op=NEW
PIPE_INST.FASEI_REV, PINNED
** Name: XSYM_ROCK_BC Type: Symmetry/Antisymmetry/Encastre
*Boundary, op=NEW
ROCK_BC, XSYMM
** Name: YSYM_BASE Type: Symmetry/Antisymmetry/Encastre
*Boundary, op=NEW
YSYM_BASE, YSYMM
** Name: YSYM_TOP Type: Symmetry/Antisymmetry/Encastre
*Boundary, op=NEW
YSYM_TOP, YSYMM
** 
** LOADS
** 
** Name: GRAVITY   Type: Gravity
*Dload, op=NEW
, GRAV, 9.81, , -1.
** Name: P_FASEI_OPEN_WELL   Type: Pressure Using Field: P_FASEI_OPEN_WELL
*Dload, op=NEW
ROCK_INST.24, P2, 3.59951e+07
ROCK_INST.48, P2, 3.6045e+07
ROCK_INST.72, P2, 3.6095e+07
ROCK_INST.96, P2, 3.61449e+07
ROCK_INST.120, P2, 3.61949e+07
ROCK_INST.144, P2, 3.62449e+07
ROCK_INST.168, P2, 3.62948e+07
ROCK_INST.192, P2, 3.63448e+07
ROCK_INST.216, P2, 3.63947e+07
ROCK_INST.240, P2, 3.64447e+07
ROCK_INST.264, P2, 3.64947e+07
ROCK_INST.288, P2, 3.65446e+07
ROCK_INST.312, P2, 3.65946e+07
ROCK_INST.336, P2, 3.66445e+07
ROCK_INST.360, P2, 3.66945e+07
ROCK_INST.384, P2, 3.67444e+07
ROCK_INST.408, P2, 3.67944e+07
ROCK_INST.432, P2, 3.68444e+07
ROCK_INST.456, P2, 3.68943e+07
ROCK_INST.480, P2, 3.69443e+07
** ... 260 like lines cut
** 
** OUTPUT REQUESTS
** 
*Restart, write, frequency=0
** 
** FIELD OUTPUT: FASEI_REV
** 
*Output, field, time points=timePoint
*Node Output, nset=PIPE_INST.FASEI_REV
NT, U
*Element Output, elset=PIPE_INST.FASEI_REV, directions=YES
E, MISES, PE, S, PEEQ
** 
** FIELD OUTPUT: ROCK_OUTPUT
** 
*Node Output, nset=ROCK_OUTPUT
U, 
*Element Output, elset=ROCK_OUTPUT, directions=YES
TEMP, 
*Output, history, frequency=0
*End Step
** ----------------------------------------------------------------
** 
** STEP: Perf_10_375_Creep
** 
*Step, name=Perf_10_375_Creep, nlgeom=YES, inc=1000000
*Visco, cetol=0.0001
1e-06, 172800., 1e-15, 172800.
** 
** LOADS
** 
** Name: GRAVITY   Type: Gravity
*Dload, op=NEW
, GRAV, 9.81, , -1.
** Name: P_FASEI_OPEN_WELL   Type: Pressure Using Field: P_FASEI_OPEN_WELL
*Dload, op=NEW
ROCK_INST.24, P2, 3.59951e+07
ROCK_INST.48, P2, 3.6045e+07
ROCK_INST.72, P2, 3.6095e+07
ROCK_INST.96, P2, 3.61449e+07
ROCK_INST.120, P2, 3.61949e+07
ROCK_INST.144, P2, 3.62449e+07
ROCK_INST.168, P2, 3.62948e+07
ROCK_INST.192, P2, 3.63448e+07
ROCK_INST.216, P2, 3.63947e+07
ROCK_INST.240, P2, 3.64447e+07
ROCK_INST.264, P2, 3.64947e+07
ROCK_INST.288, P2, 3.65446e+07
ROCK_INST.312, P2, 3.65946e+07
ROCK_INST.336, P2, 3.66445e+07
ROCK_INST.360, P2, 3.66945e+07
ROCK_INST.384, P2, 3.67444e+07
ROCK_INST.408, P2, 3.67944e+07
ROCK_INST.432, P2, 3.68444e+07
ROCK_INST.456, P2, 3.68943e+07
ROCK_INST.480, P2, 3.69443e+07
** ... 260 like lines cut
** 
** OUTPUT REQUESTS
** 
*Restart, write, frequency=0
** 
** FIELD OUTPUT: FASEI_REV
** 
*Output, field, time points=timePoint
*Node Output, nset=PIPE_INST.FASEI_REV
NT, U
*Element Output, elset=PIPE_INST.FASEI_REV, directions=YES
E, MISES, PE, S, PEEQ
** 
** FIELD OUTPUT: ROCK_OUTPUT
** 
*Node Output, nset=ROCK_OUTPUT
U, 
*Element Output, elset=ROCK_OUTPUT, directions=YES
TEMP, 
*Output, history, frequency=0
*End Step
** ----------------------------------------------------------------
** 
** STEP: Rev_9_875
** 
*Step, name=Rev_9_875, nlgeom=YES
*Static
1., 1., 1e-15, 1.
** 
** BOUNDARY CONDITIONS
** 
** Name: PIN_FASEI Type: Symmetry/Antisymmetry/Encastre
*Boundary, op=NEW
** Name: XSYM_ROCK_BC Type: Symmetry/Antisymmetry/Encastre
*Boundary, op=NEW
ROCK_BC, XSYMM
** Name: YSYM_BASE Type: Symmetry/Antisymmetry/Encastre
*Boundary, op=NEW
YSYM_BASE, YSYMM
** Name: YSYM_TOP Type: Symmetry/Antisymmetry/Encastre
*Boundary, op=NEW
YSYM_TOP, YSYMM
** 
** LOADS
** 
** Name: GRAVITY   Type: Gravity
*Dload, op=NEW
, GRAV, 9.81, , -1.
** Name: P_FASEI_COMPLETED_WELL   Type: Pressure Using Field: P_FASEI_COMPLETED_WELL
*Dload, op=NEW
PIPE_INST.3, P2, 3.59951e+07
PIPE_INST.6, P2, 3.6045e+07
PIPE_INST.9, P2, 3.6095e+07
PIPE_INST.12, P2, 3.61449e+07
PIPE_INST.15, P2, 3.61949e+07
PIPE_INST.18, P2, 3.62449e+07
PIPE_INST.21, P2, 3.62948e+07
PIPE_INST.24, P2, 3.63448e+07
PIPE_INST.27, P2, 3.63947e+07
PIPE_INST.30, P2, 3.64447e+07
PIPE_INST.33, P2, 3.64947e+07
PIPE_INST.36, P2, 3.65446e+07
PIPE_INST.39, P2, 3.65946e+07
PIPE_INST.42, P2, 3.66445e+07
PIPE_INST.45, P2, 3.66945e+07
PIPE_INST.48, P2, 3.67444e+07
PIPE_INST.51, P2, 3.67944e+07
PIPE_INST.54, P2, 3.68444e+07
PIPE_INST.57, P2, 3.68943e+07
PIPE_INST.60, P2, 3.69443e+07
** ... 260 like lines cut
** Name: P_FASEI_FLUID   Type: Pressure Using Field: P_FASEI_FLUID
*Dload, op=NEW
PIPE_INST.1, P4, 3.59951e+07
PIPE_INST.4, P4, 3.6045e+07
PIPE_INST.7, P4, 3.6095e+07
PIPE_INST.10, P4, 3.61449e+07
PIPE_INST.13, P4, 3.61949e+07
PIPE_INST.16, P4, 3.62449e+07
PIPE_INST.19, P4, 3.62948e+07
PIPE_INST.22, P4, 3.63448e+07
PIPE_INST.25, P4, 3.63947e+07
PIPE_INST.28, P4, 3.64447e+07
PIPE_INST.31, P4, 3.64947e+07
PIPE_INST.34, P4, 3.65446e+07
PIPE_INST.37, P4, 3.65946e+07
PIPE_INST.40, P4, 3.66445e+07
PIPE_INST.43, P4, 3.66945e+07
PIPE_INST.46, P4, 3.67444e+07
PIPE_INST.49, P4, 3.67944e+07
PIPE_INST.52, P4, 3.68444e+07
PIPE_INST.55, P4, 3.68943e+07
PIPE_INST.58, P4, 3.69443e+07
** ... 260 like lines cut
ROCK_INST.24, P2, 3.59951e+07
ROCK_INST.48, P2, 3.6045e+07
ROCK_INST.72, P2, 3.6095e+07
ROCK_INST.96, P2, 3.61449e+07
ROCK_INST.120, P2, 3.61949e+07
ROCK_INST.144, P2, 3.62449e+07
ROCK_INST.168, P2, 3.62948e+07
ROCK_INST.192, P2, 3.63448e+07
ROCK_INST.216, P2, 3.63947e+07
ROCK_INST.240, P2, 3.64447e+07
ROCK_INST.264, P2, 3.64947e+07
ROCK_INST.288, P2, 3.65446e+07
ROCK_INST.312, P2, 3.65946e+07
ROCK_INST.336, P2, 3.66445e+07
ROCK_INST.360, P2, 3.66945e+07
ROCK_INST.384, P2, 3.67444e+07
ROCK_INST.408, P2, 3.67944e+07
ROCK_INST.432, P2, 3.68444e+07
ROCK_INST.456, P2, 3.68943e+07
ROCK_INST.480, P2, 3.69443e+07
** ... 260 like lines cut
** Name: P_FASEI_OPEN_WELL   Type: Pressure Using Field: P_FASEI_OPEN_WELL
*Dload, op=NEW
** 
** INTERACTIONS
** 
** Interaction: C_FASEI
*Model Change, type=CONTACT PAIR, add
ROCK_INST_FASEI_SLAVE_CNS_, FASEI_MASTER
** Interaction: MC_FASEI_REV
*Model Change, add
PIPE_INST.FASEI_REV, 
** 
** OUTPUT REQUESTS
** 
*Restart, write, frequency=0
** 
** FIELD OUTPUT: FASEI_REV
** 
*Output, field, time points=timePoint
*Node Output, nset=PIPE_INST.FASEI_REV
NT, U
*Element Output, elset=PIPE_INST.FASEI_REV, directions=YES
E, MISES, PE, S, PEEQ
** 
** FIELD OUTPUT: ROCK_OUTPUT
** 
*Node Output, nset=ROCK_OUTPUT
U, 
*Element Output, elset=ROCK_OUTPUT, directions=YES
TEMP, 
*Output, history, frequency=0
*End Step
** ----------------------------------------------------------------
** 
** STEP: Rev_9_875_Creep
** 
*Step, name=Rev_9_875_Creep, nlgeom=YES, inc=1000000
*Visco, cetol=0.0001
1e-06, 9.4608e+08, 1e-15, 1.5552e+07
** 
** LOADS
** 
** Name: GRAVITY   Type: Gravity
*Dload, op=NEW
, GRAV, 9.81, , -1.
** Name: P_FASEI_COMPLETED_WELL   Type: Pressure Using Field: P_FASEI_COMPLETED_WELL
*Dload, op=NEW
PIPE_INST.3, P2, 3.59951e+07
PIPE_INST.6, P2, 3.6045e+07
PIPE_INST.9, P2, 3.6095e+07
PIPE_INST.12, P2, 3.61449e+07
PIPE_INST.15, P2, 3.61949e+07
PIPE_INST.18, P2, 3.62449e+07
PIPE_INST.21, P2, 3.62948e+07
PIPE_INST.24, P2, 3.63448e+07
PIPE_INST.27, P2, 3.63947e+07
PIPE_INST.30, P2, 3.64447e+07
PIPE_INST.33, P2, 3.64947e+07
PIPE_INST.36, P2, 3.65446e+07
PIPE_INST.39, P2, 3.65946e+07
PIPE_INST.42, P2, 3.66445e+07
PIPE_INST.45, P2, 3.66945e+07
PIPE_INST.48, P2, 3.67444e+07
PIPE_INST.51, P2, 3.67944e+07
PIPE_INST.54, P2, 3.68444e+07
PIPE_INST.57, P2, 3.68943e+07
PIPE_INST.60, P2, 3.69443e+07
** ... 260 like lines cut
** Name: P_FASEI_FLUID   Type: Pressure Using Field: P_FASEI_FLUID
*Dload, op=NEW
PIPE_INST.1, P4, 3.59951e+07
PIPE_INST.4, P4, 3.6045e+07
PIPE_INST.7, P4, 3.6095e+07
PIPE_INST.10, P4, 3.61449e+07
PIPE_INST.13, P4, 3.61949e+07
PIPE_INST.16, P4, 3.62449e+07
PIPE_INST.19, P4, 3.62948e+07
PIPE_INST.22, P4, 3.63448e+07
PIPE_INST.25, P4, 3.63947e+07
PIPE_INST.28, P4, 3.64447e+07
PIPE_INST.31, P4, 3.64947e+07
PIPE_INST.34, P4, 3.65446e+07
PIPE_INST.37, P4, 3.65946e+07
PIPE_INST.40, P4, 3.66445e+07
PIPE_INST.43, P4, 3.66945e+07
PIPE_INST.46, P4, 3.67444e+07
PIPE_INST.49, P4, 3.67944e+07
PIPE_INST.52, P4, 3.68444e+07
PIPE_INST.55, P4, 3.68943e+07
PIPE_INST.58, P4, 3.69443e+07
** ... 260 like lines cut
ROCK_INST.24, P2, 3.59951e+07
ROCK_INST.48, P2, 3.6045e+07
ROCK_INST.72, P2, 3.6095e+07
ROCK_INST.96, P2, 3.61449e+07
ROCK_INST.120, P2, 3.61949e+07
ROCK_INST.144, P2, 3.62449e+07
ROCK_INST.168, P2, 3.62948e+07
ROCK_INST.192, P2, 3.63448e+07
ROCK_INST.216, P2, 3.63947e+07
ROCK_INST.240, P2, 3.64447e+07
ROCK_INST.264, P2, 3.64947e+07
ROCK_INST.288, P2, 3.65446e+07
ROCK_INST.312, P2, 3.65946e+07
ROCK_INST.336, P2, 3.66445e+07
ROCK_INST.360, P2, 3.66945e+07
ROCK_INST.384, P2, 3.67444e+07
ROCK_INST.408, P2, 3.67944e+07
ROCK_INST.432, P2, 3.68444e+07
ROCK_INST.456, P2, 3.68943e+07
ROCK_INST.480, P2, 3.69443e+07
** ... 260 like lines cut
** 
** OUTPUT REQUESTS
** 
*Restart, write, frequency=0
** 
** FIELD OUTPUT: FASEI_REV
** 
*Output, field, time points=timePoint
*Node Output, nset=PIPE_INST.FASEI_REV
NT, U
*Element Output, elset=PIPE_INST.FASEI_REV, directions=YES
E, MISES, PE, S, PEEQ
** 
** FIELD OUTPUT: ROCK_OUTPUT
** 
*Node Output, nset=ROCK_OUTPUT
U, 
*Element Output, elset=ROCK_OUTPUT, directions=YES
TEMP, 
*Output, history, frequency=0
*End Step
