*Heading
** Job name: WellClosureJob Model name: MyFirstModel
** Generated by: Abaqus/CAE 2024
*Preprint, echo=NO, model=NO, history=NO, contact=NO
**
** PARTS
**
*Part, name=FLUID
*End Part
**  
*Part, name=PIPE
*End Part
**  
*Part, name=ROCK
*End Part
**  
**
** ASSEMBLY
**
*Assembly, name=Assembly
**  
*Instance, name=FLUID_INST, part=FLUID
*Node
      1,  0.155575007,       -3600.
      2,   0.14088428,       -3600.
      3,   0.14088428,       -4100.
      4,  0.155575007,       -4100.
      5,  0.155575007,       -2500.
      6,   0.14088428,       -2500.
      7,  0.151902318,       -3600.
      8,  0.148229644,       -3600.
      9,  0.144556955,       -3600.
     10,   0.14088428,       -3601.
     11,   0.14088428,  -3602.03662
     12,   0.14088428,  -3603.11108
     13,   0.14088428,  -3604.22485
     14,   0.14088428,  -3605.37939
     15,   0.14088428,  -3606.57593
     16,   0.14088428,  -3607.81641
     17,   0.14088428,  -3609.10229
     18,   0.14088428,  -3610.43506
     19,   0.14088428,  -3611.81665
     20,   0.14088428,  -3613.24878
** ... 2030 like lines cut
*Element, type=CAX4
  1,    1,    7,  830,  268
  2,    7,    8,  831,  830
  3,    8,    9,  832,  831
  4,    9,    2,   10,  832
  5,  268,  830,  833,  267
  6,  830,  831,  834,  833
  7,  831,  832,  835,  834
  8,  832,   10,   11,  835
  9,  267,  833,  836,  266
 10,  833,  834,  837,  836
 11,  834,  835,  838,  837
 12,  835,   11,   12,  838
 13,  266,  836,  839,  265
 14,  836,  837,  840,  839
 15,  837,  838,  841,  840
 16,  838,   12,   13,  841
 17,  265,  839,  842,  264
 18,  839,  840,  843,  842
 19,  840,  841,  844,  843
 20,  841,   13,   14,  844
** ... 1616 like lines cut
*Nset, nset=FASEI_FLUIDO, generate
    1,  2050,     1
*Elset, elset=FASEI_FLUIDO, generate
    1,  1636,     1
*Nset, nset=FASEI_FLUIDO_BASE
   3,   4, 138, 139, 140
*Elset, elset=FASEI_FLUIDO_BASE, generate
 513,  516,    1
*Nset, nset=FASEI_FLUIDO_ID
   2,   3,   6,  10,  11,  12,  13,  14,  15,  16,  17,  18,  19,  20,  21,  22
  23,  24,  25,  26,  27,  28,  29,  30,  31,  32,  33,  34,  35,  36,  37,  38
  39,  40,  41,  42,  43,  44,  45,  46,  47,  48,  49,  50,  51,  52,  53,  54
  55,  56,  57,  58,  59,  60,  61,  62,  63,  64,  65,  66,  67,  68,  69,  70
  71,  72,  73,  74,  75,  76,  77,  78,  79,  80,  81,  82,  83,  84,  85,  86
  87,  88,  89,  90,  91,  92,  93,  94,  95,  96,  97,  98,  99, 100, 101, 102
 103, 104, 105, 106, 107, 108, 109, 110, 111, 112, 113, 114, 115, 116, 117, 118
 119, 120, 121, 122, 123, 124, 125, 126, 127, 128, 129, 130, 131, 132, 133, 134
 135, 136, 137, 551, 552, 553, 554, 555, 556, 557, 558, 559, 560, 561, 562, 563
 564, 565, 566, 567, 568, 569, 570, 571, 572, 573, 574, 575, 576, 577, 578, 579
 580, 581, 582, 583, 584, 585, 586, 587, 588, 589, 590, 591, 592, 593, 594, 595
 596, 597, 598, 599, 600, 601, 602, 603, 604, 605, 606, 607, 608, 609, 610, 611
 612, 613, 614, 615, 616, 617, 618, 619, 620, 621, 622, 623, 624, 625, 626, 627
 628, 629, 630, 631, 632, 633, 634, 635, 636, 637, 638, 639, 640, 641, 642, 643
 644, 645, 646, 647, 648, 649, 650, 651, 652, 653, 654, 655, 656, 657, 658, 659
 660, 661, 662, 663, 664, 665, 666, 667, 668, 669, 670, 671, 672, 673, 674, 675
 676, 677, 678, 679, 680, 681, 682, 683, 684, 685, 686, 687, 688, 689, 690, 691
 692, 693, 694, 695, 696, 697, 698, 699, 700, 701, 702, 703, 704, 705, 706, 707
 708, 709, 710, 711, 712, 713, 714, 715, 716, 717, 718, 719, 720, 721, 722, 723
 724, 725, 726, 727, 728, 729, 730, 731, 732, 733, 734, 735, 736, 737, 738, 739
** ... 6 like lines cut
*Elset, elset=FASEI_FLUIDO_ID
    4,    8,   12,   16,   20,   24,   28,   32,   36,   40,   44,   48,   52,   56,   60,   64
   68,   72,   76,   80,   84,   88,   92,   96,  100,  104,  108,  112,  116,  120,  124,  128
  132,  136,  140,  144,  148,  152,  156,  160,  164,  168,  172,  176,  180,  184,  188,  192
  196,  200,  204,  208,  212,  216,  220,  224,  228,  232,  236,  240,  244,  248,  252,  256
  260,  264,  268,  272,  276,  280,  284,  288,  292,  296,  300,  304,  308,  312,  316,  320
  324,  328,  332,  336,  340,  344,  348,  352,  356,  360,  364,  368,  372,  376,  380,  384
  388,  392,  396,  400,  404,  408,  412,  416,  420,  424,  428,  432,  436,  440,  444,  448
  452,  456,  460,  464,  468,  472,  476,  480,  484,  488,  492,  496,  500,  504,  508,  512
  516,  517,  521,  525,  529,  533,  537,  541,  545,  549,  553,  557,  561,  565,  569,  573
  577,  581,  585,  589,  593,  597,  601,  605,  609,  613,  617,  621,  625,  629,  633,  637
  641,  645,  649,  653,  657,  661,  665,  669,  673,  677,  681,  685,  689,  693,  697,  701
  705,  709,  713,  717,  721,  725,  729,  733,  737,  741,  745,  749,  753,  757,  761,  765
  769,  773,  777,  781,  785,  789,  793,  797,  801,  805,  809,  813,  817,  821,  825,  829
  833,  837,  841,  845,  849,  853,  857,  861,  865,  869,  873,  877,  881,  885,  889,  893
  897,  901,  905,  909,  913,  917,  921,  925,  929,  933,  937,  941,  945,  949,  953,  957
  961,  965,  969,  973,  977,  981,  985,  989,  993,  997, 1001, 1005, 1009, 1013, 1017, 1021
 1025, 1029, 1033, 1037, 1041, 1045, 1049, 1053, 1057, 1061, 1065, 1069, 1073, 1077, 1081, 1085
 1089, 1093, 1097, 1101, 1105, 1109, 1113, 1117, 1121, 1125, 1129, 1133, 1137, 1141, 1145, 1149
 1153, 1157, 1161, 1165, 1169, 1173, 1177, 1181, 1185, 1189, 1193, 1197, 1201, 1205, 1209, 1213
 1217, 1221, 1225, 1229, 1233, 1237, 1241, 1245, 1249, 1253, 1257, 1261, 1265, 1269, 1273, 1277
** ... 6 like lines cut
*Nset, nset=FASEI_FLUIDO_OD
   1,   4,   5, 141, 142, 143, 144, 145, 146, 147, 148, 149, 150, 151, 152, 153
 154, 155, 156, 157, 158, 159, 160, 161, 162, 163, 164, 165, 166, 167, 168, 169
 170, 171, 172, 173, 174, 175, 176, 177, 178, 179, 180, 181, 182, 183, 184, 185
 186, 187, 188, 189, 190, 191, 192, 193, 194, 195, 196, 197, 198, 199, 200, 201
 202, 203, 204, 205, 206, 207, 208, 209, 210, 211, 212, 213, 214, 215, 216, 217
 218, 219, 220, 221, 222, 223, 224, 225, 226, 227, 228, 229, 230, 231, 232, 233
 234, 235, 236, 237, 238, 239, 240, 241, 242, 243, 244, 245, 246, 247, 248, 249
 250, 251, 252, 253, 254, 255, 256, 257, 258, 259, 260, 261, 262, 263, 264, 265
 266, 267, 268, 269, 270, 271, 272, 273, 274, 275, 276, 277, 278, 279, 280, 281
 282, 283, 284, 285, 286, 287, 288, 289, 290, 291, 292, 293, 294, 295, 296, 297
 298, 299, 300, 301, 302, 303, 304, 305, 306, 307, 308, 309, 310, 311, 312, 313
 314, 315, 316, 317, 318, 319, 320, 321, 322, 323, 324, 325, 326, 327, 328, 329
 330, 331, 332, 333, 334, 335, 336, 337, 338, 339, 340, 341, 342, 343, 344, 345
 346, 347, 348, 349, 350, 351, 352, 353, 354, 355, 356, 357, 358, 359, 360, 361
 362, 363, 364, 365, 366, 367, 368, 369, 370, 371, 372, 373, 374, 375, 376, 377
 378, 379, 380, 381, 382, 383, 384, 385, 386, 387, 388, 389, 390, 391, 392, 393
 394, 395, 396, 397, 398, 399, 400, 401, 402, 403, 404, 405, 406, 407, 408, 409
 410, 411, 412, 413, 414, 415, 416, 417, 418, 419, 420, 421, 422, 423, 424, 425
 426, 427, 428, 429, 430, 431, 432, 433, 434, 435, 436, 437, 438, 439, 440, 441
 442, 443, 444, 445, 446, 447, 448, 449, 450, 451, 452, 453, 454, 455, 456, 457
** ... 6 like lines cut
*Elset, elset=FASEI_FLUIDO_OD
    1,    5,    9,   13,   17,   21,   25,   29,   33,   37,   41,   45,   49,   53,   57,   61
   65,   69,   73,   77,   81,   85,   89,   93,   97,  101,  105,  109,  113,  117,  121,  125
  129,  133,  137,  141,  145,  149,  153,  157,  161,  165,  169,  173,  177,  181,  185,  189
  193,  197,  201,  205,  209,  213,  217,  221,  225,  229,  233,  237,  241,  245,  249,  253
  257,  261,  265,  269,  273,  277,  281,  285,  289,  293,  297,  301,  305,  309,  313,  317
  321,  325,  329,  333,  337,  341,  345,  349,  353,  357,  361,  365,  369,  373,  377,  381
  385,  389,  393,  397,  401,  405,  409,  413,  417,  421,  425,  429,  433,  437,  441,  445
  449,  453,  457,  461,  465,  469,  473,  477,  481,  485,  489,  493,  497,  501,  505,  509
  513,  520,  524,  528,  532,  536,  540,  544,  548,  552,  556,  560,  564,  568,  572,  576
  580,  584,  588,  592,  596,  600,  604,  608,  612,  616,  620,  624,  628,  632,  636,  640
  644,  648,  652,  656,  660,  664,  668,  672,  676,  680,  684,  688,  692,  696,  700,  704
  708,  712,  716,  720,  724,  728,  732,  736,  740,  744,  748,  752,  756,  760,  764,  768
  772,  776,  780,  784,  788,  792,  796,  800,  804,  808,  812,  816,  820,  824,  828,  832
  836,  840,  844,  848,  852,  856,  860,  864,  868,  872,  876,  880,  884,  888,  892,  896
  900,  904,  908,  912,  916,  920,  924,  928,  932,  936,  940,  944,  948,  952,  956,  960
  964,  968,  972,  976,  980,  984,  988,  992,  996, 1000, 1004, 1008, 1012, 1016, 1020, 1024
 1028, 1032, 1036, 1040, 1044, 1048, 1052, 1056, 1060, 1064, 1068, 1072, 1076, 1080, 1084, 1088
 1092, 1096, 1100, 1104, 1108, 1112, 1116, 1120, 1124, 1128, 1132, 1136, 1140, 1144, 1148, 1152
 1156, 1160, 1164, 1168, 1172, 1176, 1180, 1184, 1188, 1192, 1196, 1200, 1204, 1208, 1212, 1216
 1220, 1224, 1228, 1232, 1236, 1240, 1244, 1248, 1252, 1256, 1260, 1264, 1268, 1272, 1276, 1280
** ... 6 like lines cut
*Nset, nset=FASEI_FLUIDO_TOP
   5,   6, 548, 549, 550
*Elset, elset=FASEI_FLUIDO_TOP, generate
 1633,  1636,     1
*Nset, nset=FASEI_ANNULAR, generate
    1,  2050,     1
*Elset, elset=FASEI_ANNULAR, generate
    1,  1636,     1
*Nset, nset=FASEI_ANNULAR_BASE
   3,   4, 138, 139, 140
*Elset, elset=FASEI_ANNULAR_BASE, generate
 513,  516,    1
*Nset, nset=FASEI_ANNULAR_ID
   2,   3,   6,  10,  11,  12,  13,  14,  15,  16,  17,  18,  19,  20,  21,  22
  23,  24,  25,  26,  27,  28,  29,  30,  31,  32,  33,  34,  35,  36,  37,  38
  39,  40,  41,  42,  43,  44,  45,  46,  47,  48,  49,  50,  51,  52,  53,  54
  55,  56,  57,  58,  59,  60,  61,  62,  63,  64,  65,  66,  67,  68,  69,  70
  71,  72,  73,  74,  75,  76,  77,  78,  79,  80,  81,  82,  83,  84,  85,  86
  87,  88,  89,  90,  91,  92,  93,  94,  95,  96,  97,  98,  99, 100, 101, 102
 103, 104, 105, 106, 107, 108, 109, 110, 111, 112, 113, 114, 115, 116, 117, 118
 119, 120, 121, 122, 123, 124, 125, 126, 127, 128, 129, 130, 131, 132, 133, 134
 135, 136, 137, 551, 552, 553, 554, 555, 556, 557, 558, 559, 560, 561, 562, 563
 564, 565, 566, 567, 568, 569, 570, 571, 572, 573, 574, 575, 576, 577, 578, 579
 580, 581, 582, 583, 584, 585, 586, 587, 588, 589, 590, 591, 592, 593, 594, 595
 596, 597, 598, 599, 600, 601, 602, 603, 604, 605, 606, 607, 608, 609, 610, 611
 612, 613, 614, 615, 616, 617, 618, 619, 620, 621, 622, 623, 624, 625, 626, 627
 628, 629, 630, 631, 632, 633, 634, 635, 636, 637, 638, 639, 640, 641, 642, 643
 644, 645, 646, 647, 648, 649, 650, 651, 652, 653, 654, 655, 656, 657, 658, 659
 660, 661, 662, 663, 664, 665, 666, 667, 668, 669, 670, 671, 672, 673, 674, 675
 676, 677, 678, 679, 680, 681, 682, 683, 684, 685, 686, 687, 688, 689, 690, 691
 692, 693, 694, 695, 696, 697, 698, 699, 700, 701, 702, 703, 704, 705, 706, 707
 708, 709, 710, 711, 712, 713, 714, 715, 716, 717, 718, 719, 720, 721, 722, 723
 724, 725, 726, 727, 728, 729, 730, 731, 732, 733, 734, 735, 736, 737, 738, 739
** ... 6 like lines cut
*Elset, elset=FASEI_ANNULAR_ID
    4,    8,   12,   16,   20,   24,   28,   32,   36,   40,   44,   48,   52,   56,   60,   64
   68,   72,   76,   80,   84,   88,   92,   96,  100,  104,  108,  112,  116,  120,  124,  128
  132,  136,  140,  144,  148,  152,  156,  160,  164,  168,  172,  176,  180,  184,  188,  192
  196,  200,  204,  208,  212,  216,  220,  224,  228,  232,  236,  240,  244,  248,  252,  256
  260,  264,  268,  272,  276,  280,  284,  288,  292,  296,  300,  304,  308,  312,  316,  320
  324,  328,  332,  336,  340,  344,  348,  352,  356,  360,  364,  368,  372,  376,  380,  384
  388,  392,  396,  400,  404,  408,  412,  416,  420,  424,  428,  432,  436,  440,  444,  448
  452,  456,  460,  464,  468,  472,  476,  480,  484,  488,  492,  496,  500,  504,  508,  512
  516,  517,  521,  525,  529,  533,  537,  541,  545,  549,  553,  557,  561,  565,  569,  573
  577,  581,  585,  589,  593,  597,  601,  605,  609,  613,  617,  621,  625,  629,  633,  637
  641,  645,  649,  653,  657,  661,  665,  669,  673,  677,  681,  685,  689,  693,  697,  701
  705,  709,  713,  717,  721,  725,  729,  733,  737,  741,  745,  749,  753,  757,  761,  765
  769,  773,  777,  781,  785,  789,  793,  797,  801,  805,  809,  813,  817,  821,  825,  829
  833,  837,  841,  845,  849,  853,  857,  861,  865,  869,  873,  877,  881,  885,  889,  893
  897,  901,  905,  909,  913,  917,  921,  925,  929,  933,  937,  941,  945,  949,  953,  957
  961,  965,  969,  973,  977,  981,  985,  989,  993,  997, 1001, 1005, 1009, 1013, 1017, 1021
 1025, 1029, 1033, 1037, 1041, 1045, 1049, 1053, 1057, 1061, 1065, 1069, 1073, 1077, 1081, 1085
 1089, 1093, 1097, 1101, 1105, 1109, 1113, 1117, 1121, 1125, 1129, 1133, 1137, 1141, 1145, 1149
 1153, 1157, 1161, 1165, 1169, 1173, 1177, 1181, 1185, 1189, 1193, 1197, 1201, 1205, 1209, 1213
 1217, 1221, 1225, 1229, 1233, 1237, 1241, 1245, 1249, 1253, 1257, 1261, 1265, 1269, 1273, 1277
** ... 6 like lines cut
*Nset, nset=FASEI_ANNULAR_OD
   1,   4,   5, 141, 142, 143, 144, 145, 146, 147, 148, 149, 150, 151, 152, 153
 154, 155, 156, 157, 158, 159, 160, 161, 162, 163, 164, 165, 166, 167, 168, 169
 170, 171, 172, 173, 174, 175, 176, 177, 178, 179, 180, 181, 182, 183, 184, 185
 186, 187, 188, 189, 190, 191, 192, 193, 194, 195, 196, 197, 198, 199, 200, 201
 202, 203, 204, 205, 206, 207, 208, 209, 210, 211, 212, 213, 214, 215, 216, 217
 218, 219, 220, 221, 222, 223, 224, 225, 226, 227, 228, 229, 230, 231, 232, 233
 234, 235, 236, 237, 238, 239, 240, 241, 242, 243, 244, 245, 246, 247, 248, 249
 250, 251, 252, 253, 254, 255, 256, 257, 258, 259, 260, 261, 262, 263, 264, 265
 266, 267, 268, 269, 270, 271, 272, 273, 274, 275, 276, 277, 278, 279, 280, 281
 282, 283, 284, 285, 286, 287, 288, 289, 290, 291, 292, 293, 294, 295, 296, 297
 298, 299, 300, 301, 302, 303, 304, 305, 306, 307, 308, 309, 310, 311, 312, 313
 314, 315, 316, 317, 318, 319, 320, 321, 322, 323, 324, 325, 326, 327, 328, 329
 330, 331, 332, 333, 334, 335, 336, 337, 338, 339, 340, 341, 342, 343, 344, 345
 346, 347, 348, 349, 350, 351, 352, 353, 354, 355, 356, 357, 358, 359, 360, 361
 362, 363, 364, 365, 366, 367, 368, 369, 370, 371, 372, 373, 374, 375, 376, 377
 378, 379, 380, 381, 382, 383, 384, 385, 386, 387, 388, 389, 390, 391, 392, 393
 394, 395, 396, 397, 398, 399, 400, 401, 402, 403, 404, 405, 406, 407, 408, 409
 410, 411, 412, 413, 414, 415, 416, 417, 418, 419, 420, 421, 422, 423, 424, 425
 426, 427, 428, 429, 430, 431, 432, 433, 434, 435, 436, 437, 438, 439, 440, 441
 442, 443, 444, 445, 446, 447, 448, 449, 450, 451, 452, 453, 454, 455, 456, 457
** ... 6 like lines cut
*Elset, elset=FASEI_ANNULAR_OD
    1,    5,    9,   13,   17,   21,   25,   29,   33,   37,   41,   45,   49,   53,   57,   61
   65,   69,   73,   77,   81,   85,   89,   93,   97,  101,  105,  109,  113,  117,  121,  125
  129,  133,  137,  141,  145,  149,  153,  157,  161,  165,  169,  173,  177,  181,  185,  189
  193,  197,  201,  205,  209,  213,  217,  221,  225,  229,  233,  237,  241,  245,  249,  253
  257,  261,  265,  269,  273,  277,  281,  285,  289,  293,  297,  301,  305,  309,  313,  317
  321,  325,  329,  333,  337,  341,  345,  349,  353,  357,  361,  365,  369,  373,  377,  381
  385,  389,  393,  397,  401,  405,  409,  413,  417,  421,  425,  429,  433,  437,  441,  445
  449,  453,  457,  461,  465,  469,  473,  477,  481,  485,  489,  493,  497,  501,  505,  509
  513,  520,  524,  528,  532,  536,  540,  544,  548,  552,  556,  560,  564,  568,  572,  576
  580,  584,  588,  592,  596,  600,  604,  608,  612,  616,  620,  624,  628,  632,  636,  640
  644,  648,  652,  656,  660,  664,  668,  672,  676,  680,  684,  688,  692,  696,  700,  704
  708,  712,  716,  720,  724,  728,  732,  736,  740,  744,  748,  752,  756,  760,  764,  768
  772,  776,  780,  784,  788,  792,  796,  800,  804,  808,  812,  816,  820,  824,  828,  832
  836,  840,  844,  848,  852,  856,  860,  864,  868,  872,  876,  880,  884,  888,  892,  896
  900,  904,  908,  912,  916,  920,  924,  928,  932,  936,  940,  944,  948,  952,  956,  960
  964,  968,  972,  976,  980,  984,  988,  992,  996, 1000, 1004, 1008, 1012, 1016, 1020, 1024
 1028, 1032, 1036, 1040, 1044, 1048, 1052, 1056, 1060, 1064, 1068, 1072, 1076, 1080, 1084, 1088
 1092, 1096, 1100, 1104, 1108, 1112, 1116, 1120, 1124, 1128, 1132, 1136, 1140, 1144, 1148, 1152
 1156, 1160, 1164, 1168, 1172, 1176, 1180, 1184, 1188, 1192, 1196, 1200, 1204, 1208, 1212, 1216
 1220, 1224, 1228, 1232, 1236, 1240, 1244, 1248, 1252, 1256, 1260, 1264, 1268, 1272, 1276, 1280
** ... 6 like lines cut
*Nset, nset=FASEI_ANNULAR_TOP
   5,   6, 548, 549, 550
*Elset, elset=FASEI_ANNULAR_TOP, generate
 1633,  1636,     1
*Nset, nset=FASEI_ANNULAR_TT
   1,   2,   3,   4,   5,   6,   7,   8,   9, 138, 139, 140, 548, 549, 550
*Elset, elset=FASEI_ANNULAR_TT
    1,    2,    3,    4,  513,  514,  515,  516,  517,  518,  519,  520, 1633, 1634, 1635, 1636
** Section: FLUID_Section
*Solid Section, elset=FASEI_FLUIDO, material=FLUID
1.,
*End Instance
**  
*Instance, name=PIPE_INST, part=PIPE
*Node
      1,   0.14088428,       -3600.
      2,  0.125009269,       -3600.
      3,  0.125009269,       -4100.
      4,   0.14088428,       -4100.
      5,   0.14088428,       -2500.
      6,  0.125009269,       -2500.
      7,   0.13691552,       -3600.
      8,  0.132946774,       -3600.
      9,  0.128978029,       -3600.
     10,  0.125009269,       -3601.
     11,  0.125009269,  -3602.03662
     12,  0.125009269,  -3603.11108
     13,  0.125009269,  -3604.22485
     14,  0.125009269,  -3605.37939
     15,  0.125009269,  -3606.57593
     16,  0.125009269,  -3607.81641
     17,  0.125009269,  -3609.10229
     18,  0.125009269,  -3610.43506
     19,  0.125009269,  -3611.81665
     20,  0.125009269,  -3613.24878
** ... 2030 like lines cut
*Element, type=CAX4
  1,    1,    7,  830,  268
  2,    7,    8,  831,  830
  3,    8,    9,  832,  831
  4,    9,    2,   10,  832
  5,  268,  830,  833,  267
  6,  830,  831,  834,  833
  7,  831,  832,  835,  834
  8,  832,   10,   11,  835
  9,  267,  833,  836,  266
 10,  833,  834,  837,  836
 11,  834,  835,  838,  837
 12,  835,   11,   12,  838
 13,  266,  836,  839,  265
 14,  836,  837,  840,  839
 15,  837,  838,  841,  840
 16,  838,   12,   13,  841
 17,  265,  839,  842,  264
 18,  839,  840,  843,  842
 19,  840,  841,  844,  843
 20,  841,   13,   14,  844
** ... 1616 like lines cut
*Nset, nset=FASEI_REV, generate
    1,  2050,     1
*Elset, elset=FASEI_REV, generate
    1,  1636,     1
*Nset, nset=FASEI_REV_ABOVE_TOC, generate
    1,  2050,     1
*Elset, elset=FASEI_REV_ABOVE_TOC, generate
    1,  1636,     1
*Nset, nset=FASEI_REV_BASE
   3,   4, 138, 139, 140
*Elset, elset=FASEI_REV_BASE, generate
 513,  516,    1
*Nset, nset=FASEI_REV_ID
   2,   3,   6,  10,  11,  12,  13,  14,  15,  16,  17,  18,  19,  20,  21,  22
  23,  24,  25,  26,  27,  28,  29,  30,  31,  32,  33,  34,  35,  36,  37,  38
  39,  40,  41,  42,  43,  44,  45,  46,  47,  48,  49,  50,  51,  52,  53,  54
  55,  56,  57,  58,  59,  60,  61,  62,  63,  64,  65,  66,  67,  68,  69,  70
  71,  72,  73,  74,  75,  76,  77,  78,  79,  80,  81,  82,  83,  84,  85,  86
  87,  88,  89,  90,  91,  92,  93,  94,  95,  96,  97,  98,  99, 100, 101, 102
 103, 104, 105, 106, 107, 108, 109, 110, 111, 112, 113, 114, 115, 116, 117, 118
 119, 120, 121, 122, 123, 124, 125, 126, 127, 128, 129, 130, 131, 132, 133, 134
 135, 136, 137, 551, 552, 553, 554, 555, 556, 557, 558, 559, 560, 561, 562, 563
 564, 565, 566, 567, 568, 569, 570, 571, 572, 573, 574, 575, 576, 577, 578, 579
 580, 581, 582, 583, 584, 585, 586, 587, 588, 589, 590, 591, 592, 593, 594, 595
 596, 597, 598, 599, 600, 601, 602, 603, 604, 605, 606, 607, 608, 609, 610, 611
 612, 613, 614, 615, 616, 617, 618, 619, 620, 621, 622, 623, 624, 625, 626, 627
 628, 629, 630, 631, 632, 633, 634, 635, 636, 637, 638, 639, 640, 641, 642, 643
 644, 645, 646, 647, 648, 649, 650, 651, 652, 653, 654, 655, 656, 657, 658, 659
 660, 661, 662, 663, 664, 665, 666, 667, 668, 669, 670, 671, 672, 673, 674, 675
 676, 677, 678, 679, 680, 681, 682, 683, 684, 685, 686, 687, 688, 689, 690, 691
 692, 693, 694, 695, 696, 697, 698, 699, 700, 701, 702, 703, 704, 705, 706, 707
 708, 709, 710, 711, 712, 713, 714, 715, 716, 717, 718, 719, 720, 721, 722, 723
 724, 725, 726, 727, 728, 729, 730, 731, 732, 733, 734, 735, 736, 737, 738, 739
** ... 6 like lines cut
*Elset, elset=FASEI_REV_ID
    4,    8,   12,   16,   20,   24,   28,   32,   36,   40,   44,   48,   52,   56,   60,   64
   68,   72,   76,   80,   84,   88,   92,   96,  100,  104,  108,  112,  116,  120,  124,  128
  132,  136,  140,  144,  148,  152,  156,  160,  164,  168,  172,  176,  180,  184,  188,  192
  196,  200,  204,  208,  212,  216,  220,  224,  228,  232,  236,  240,  244,  248,  252,  256
  260,  264,  268,  272,  276,  280,  284,  288,  292,  296,  300,  304,  308,  312,  316,  320
  324,  328,  332,  336,  340,  344,  348,  352,  356,  360,  364,  368,  372,  376,  380,  384
  388,  392,  396,  400,  404,  408,  412,  416,  420,  424,  428,  432,  436,  440,  444,  448
  452,  456,  460,  464,  468,  472,  476,  480,  484,  488,  492,  496,  500,  504,  508,  512
  516,  517,  521,  525,  529,  533,  537,  541,  545,  549,  553,  557,  561,  565,  569,  573
  577,  581,  585,  589,  593,  597,  601,  605,  609,  613,  617,  621,  625,  629,  633,  637
  641,  645,  649,  653,  657,  661,  665,  669,  673,  677,  681,  685,  689,  693,  697,  701
  705,  709,  713,  717,  721,  725,  729,  733,  737,  741,  745,  749,  753,  757,  761,  765
  769,  773,  777,  781,  785,  789,  793,  797,  801,  805,  809,  813,  817,  821,  825,  829
  833,  837,  841,  845,  849,  853,  857,  861,  865,  869,  873,  877,  881,  885,  889,  893
  897,  901,  905,  909,  913,  917,  921,  925,  929,  933,  937,  941,  945,  949,  953,  957
  961,  965,  969,  973,  977,  981,  985,  989,  993,  997, 1001, 1005, 1009, 1013, 1017, 1021
 1025, 1029, 1033, 1037, 1041, 1045, 1049, 1053, 1057, 1061, 1065, 1069, 1073, 1077, 1081, 1085
 1089, 1093, 1097, 1101, 1105, 1109, 1113, 1117, 1121, 1125, 1129, 1133, 1137, 1141, 1145, 1149
 1153, 1157, 1161, 1165, 1169, 1173, 1177, 1181, 1185, 1189, 1193, 1197, 1201, 1205, 1209, 1213
 1217, 1221, 1225, 1229, 1233, 1237, 1241, 1245, 1249, 1253, 1257, 1261, 1265, 1269, 1273, 1277
** ... 6 like lines cut
*Nset, nset=FASEI_REV_OD
   1,   4,   5, 141, 142, 143, 144, 145, 146, 147, 148, 149, 150, 151, 152, 153
 154, 155, 156, 157, 158, 159, 160, 161, 162, 163, 164, 165, 166, 167, 168, 169
 170, 171, 172, 173, 174, 175, 176, 177, 178, 179, 180, 181, 182, 183, 184, 185
 186, 187, 188, 189, 190, 191, 192, 193, 194, 195, 196, 197, 198, 199, 200, 201
 202, 203, 204, 205, 206, 207, 208, 209, 210, 211, 212, 213, 214, 215, 216, 217
 218, 219, 220, 221, 222, 223, 224, 225, 226, 227, 228, 229, 230, 231, 232, 233
 234, 235, 236, 237, 238, 239, 240, 241, 242, 243, 244, 245, 246, 247, 248, 249
 250, 251, 252, 253, 254, 255, 256, 257, 258, 259, 260, 261, 262, 263, 264, 265
 266, 267, 268, 269, 270, 271, 272, 273, 274, 275, 276, 277, 278, 279, 280, 281
 282, 283, 284, 285, 286, 287, 288, 289, 290, 291, 292, 293, 294, 295, 296, 297
 298, 299, 300, 301, 302, 303, 304, 305, 306, 307, 308, 309, 310, 311, 312, 313
 314, 315, 316, 317, 318, 319, 320, 321, 322, 323, 324, 325, 326, 327, 328, 329
 330, 331, 332, 333, 334, 335, 336, 337, 338, 339, 340, 341, 342, 343, 344, 345
 346, 347, 348, 349, 350, 351, 352, 353, 354, 355, 356, 357, 358, 359, 360, 361
 362, 363, 364, 365, 366, 367, 368, 369, 370, 371, 372, 373, 374, 375, 376, 377
 378, 379, 380, 381, 382, 383, 384, 385, 386, 387, 388, 389, 390, 391, 392, 393
 394, 395, 396, 397, 398, 399, 400, 401, 402, 403, 404, 405, 406, 407, 408, 409
 410, 411, 412, 413, 414, 415, 416, 417, 418, 419, 420, 421, 422, 423, 424, 425
 426, 427, 428, 429, 430, 431, 432, 433, 434, 435, 436, 437, 438, 439, 440, 441
 442, 443, 444, 445, 446, 447, 448, 449, 450, 451, 452, 453, 454, 455, 456, 457
** ... 6 like lines cut
*Elset, elset=FASEI_REV_OD
    1,    5,    9,   13,   17,   21,   25,   29,   33,   37,   41,   45,   49,   53,   57,   61
   65,   69,   73,   77,   81,   85,   89,   93,   97,  101,  105,  109,  113,  117,  121,  125
  129,  133,  137,  141,  145,  149,  153,  157,  161,  165,  169,  173,  177,  181,  185,  189
  193,  197,  201,  205,  209,  213,  217,  221,  225,  229,  233,  237,  241,  245,  249,  253
  257,  261,  265,  269,  273,  277,  281,  285,  289,  293,  297,  301,  305,  309,  313,  317
  321,  325,  329,  333,  337,  341,  345,  349,  353,  357,  361,  365,  369,  373,  377,  381
  385,  389,  393,  397,  401,  405,  409,  413,  417,  421,  425,  429,  433,  437,  441,  445
  449,  453,  457,  461,  465,  469,  473,  477,  481,  485,  489,  493,  497,  501,  505,  509
  513,  520,  524,  528,  532,  536,  540,  544,  548,  552,  556,  560,  564,  568,  572,  576
  580,  584,  588,  592,  596,  600,  604,  608,  612,  616,  620,  624,  628,  632,  636,  640
  644,  648,  652,  656,  660,  664,  668,  672,  676,  680,  684,  688,  692,  696,  700,  704
  708,  712,  716,  720,  724,  728,  732,  736,  740,  744,  748,  752,  756,  760,  764,  768
  772,  776,  780,  784,  788,  792,  796,  800,  804,  808,  812,  816,  820,  824,  828,  832
  836,  840,  844,  848,  852,  856,  860,  864,  868,  872,  876,  880,  884,  888,  892,  896
  900,  904,  908,  912,  916,  920,  924,  928,  932,  936,  940,  944,  948,  952,  956,  960
  964,  968,  972,  976,  980,  984,  988,  992,  996, 1000, 1004, 1008, 1012, 1016, 1020, 1024
 1028, 1032, 1036, 1040, 1044, 1048, 1052, 1056, 1060, 1064, 1068, 1072, 1076, 1080, 1084, 1088
 1092, 1096, 1100, 1104, 1108, 1112, 1116, 1120, 1124, 1128, 1132, 1136, 1140, 1144, 1148, 1152
 1156, 1160, 1164, 1168, 1172, 1176, 1180, 1184, 1188, 1192, 1196, 1200, 1204, 1208, 1212, 1216
 1220, 1224, 1228, 1232, 1236, 1240, 1244, 1248, 1252, 1256, 1260, 1264, 1268, 1272, 1276, 1280
** ... 6 like lines cut
*Nset, nset=FASEI_REV_TOP
   5,   6, 548, 549, 550
*Elset, elset=FASEI_REV_TOP, generate
 1633,  1636,     1
*Nset, nset=FASEI_REV_TT
   1,   2,   3,   4,   5,   6,   7,   8,   9, 138, 139, 140, 548, 549, 550
*Elset, elset=FASEI_REV_TT
    1,    2,    3,    4,  513,  514,  515,  516,  517,  518,  519,  520, 1633, 1634, 1635, 1636
** Section: STEEL_Section
*Solid Section, elset=FASEI_REV, material=STEEL
1.,
*End Instance
**  
*Instance, name=ROCK_INST, part=ROCK
*Node
      1,   12.1555748,       -3600.
      2,  0.155575007,       -3600.
      3,  0.155575007,       -4100.
      4,   12.1555748,       -4100.
      5,   12.1555748,       -2500.
      6,  0.155575007,       -2500.
      7,   9.17230129,       -3600.
      8,   6.93050051,       -3600.
      9,    5.2458849,       -3600.
     10,   3.97996974,       -3600.
     11,   3.02868962,       -3600.
     12,   2.31384397,       -3600.
     13,   1.77666879,       -3600.
     14,   1.37300491,       -3600.
     15,   1.06966913,       -3600.
     16,  0.841725469,       -3600.
     17,  0.670435727,       -3600.
     18,   0.54171896,       -3600.
     19,  0.444993913,       -3600.
     20,  0.372309238,       -3600.
** ... 12280 like lines cut
*Element, type=CAX4
   1,    1,    7,  905,  318
   2,    7,    8,  906,  905
   3,    8,    9,  907,  906
   4,    9,   10,  908,  907
   5,   10,   11,  909,  908
   6,   11,   12,  910,  909
   7,   12,   13,  911,  910
   8,   13,   14,  912,  911
   9,   14,   15,  913,  912
  10,   15,   16,  914,  913
  11,   16,   17,  915,  914
  12,   17,   18,  916,  915
  13,   18,   19,  917,  916
  14,   19,   20,  918,  917
  15,   20,   21,  919,  918
  16,   21,   22,  920,  919
  17,   22,   23,  921,  920
  18,   23,   24,  922,  921
  19,   24,   25,  923,  922
  20,   25,   26,  924,  923
** ... 11841 like lines cut
*Node
  12301,           0.,       -2500.,           0.
*Nset, nset=ROCK_INST-RefPt_, internal
12301, 
*Nset, nset=RP_TOP_2500
 12301,
*Nset, nset=ALLROCK, generate
     1,  12300,      1
*Elset, elset=ALLROCK, generate
     1,  11861,      1
*Nset, nset=FASEI_SLAVE, generate
     1,  12300,      1
*Elset, elset=FASEI_SLAVE, generate
     1,  11861,      1
*Nset, nset=L1-I_BASE
  1,  2,  7,  8,  9, 10, 11, 12, 13, 14, 15, 16, 17, 18, 19, 20
 21, 22, 23, 24, 25, 26, 27, 28, 29, 30, 31, 32, 33, 34
*Elset, elset=L1-I_BASE
    1,    2,    3,    4,    5,    6,    7,    8,    9,   10,   11,   12,   13,   14,   15,   16
   17,   18,   19,   20,   21,   22,   23,   24,   25,   26,   27,   28,   29, 3742, 3743, 3744
 3745, 3746, 3747, 3748, 3749, 3750, 3751, 3752, 3753, 3754, 3755, 3756, 3757, 3758, 3759, 3760
 3761, 3762, 3763, 3764, 3765, 3766, 3767, 3768, 3769, 3770
*Nset, nset=L2-I_BASE
   3,   4, 163, 164, 165, 166, 167, 168, 169, 170, 171, 172, 173, 174, 175, 176
 177, 178, 179, 180, 181, 182, 183, 184, 185, 186, 187, 188, 189, 190
*Elset, elset=L2-I_BASE, generate
 3713,  3741,     1
*Nset, nset=L1-I_ID
   2,   6, 626, 627, 628, 629, 630, 631, 632, 633, 634, 635, 636, 637, 638, 639
 640, 641, 642, 643, 644, 645, 646, 647, 648, 649, 650, 651, 652, 653, 654, 655
 656, 657, 658, 659, 660, 661, 662, 663, 664, 665, 666, 667, 668, 669, 670, 671
 672, 673, 674, 675, 676, 677, 678, 679, 680, 681, 682, 683, 684, 685, 686, 687
 688, 689, 690, 691, 692, 693, 694, 695, 696, 697, 698, 699, 700, 701, 702, 703
 704, 705, 706, 707, 708, 709, 710, 711, 712, 713, 714, 715, 716, 717, 718, 719
 720, 721, 722, 723, 724, 725, 726, 727, 728, 729, 730, 731, 732, 733, 734, 735
 736, 737, 738, 739, 740, 741, 742, 743, 744, 745, 746, 747, 748, 749, 750, 751
 752, 753, 754, 755, 756, 757, 758, 759, 760, 761, 762, 763, 764, 765, 766, 767
 768, 769, 770, 771, 772, 773, 774, 775, 776, 777, 778, 779, 780, 781, 782, 783
 784, 785, 786, 787, 788, 789, 790, 791, 792, 793, 794, 795, 796, 797, 798, 799
 800, 801, 802, 803, 804, 805, 806, 807, 808, 809, 810, 811, 812, 813, 814, 815
 816, 817, 818, 819, 820, 821, 822, 823, 824, 825, 826, 827, 828, 829, 830, 831
 832, 833, 834, 835, 836, 837, 838, 839, 840, 841, 842, 843, 844, 845, 846, 847
 848, 849, 850, 851, 852, 853, 854, 855, 856, 857, 858, 859, 860, 861, 862, 863
 864, 865, 866, 867, 868, 869, 870, 871, 872, 873, 874, 875, 876, 877, 878, 879
 880, 881, 882, 883, 884, 885, 886, 887, 888, 889, 890, 891, 892, 893, 894, 895
 896, 897, 898, 899, 900, 901, 902, 903, 904
*Elset, elset=L1-I_ID, generate
  3742,  11833,     29
*Nset, nset=L2-I_ID
   2,   3,  35,  36,  37,  38,  39,  40,  41,  42,  43,  44,  45,  46,  47,  48
  49,  50,  51,  52,  53,  54,  55,  56,  57,  58,  59,  60,  61,  62,  63,  64
  65,  66,  67,  68,  69,  70,  71,  72,  73,  74,  75,  76,  77,  78,  79,  80
  81,  82,  83,  84,  85,  86,  87,  88,  89,  90,  91,  92,  93,  94,  95,  96
  97,  98,  99, 100, 101, 102, 103, 104, 105, 106, 107, 108, 109, 110, 111, 112
 113, 114, 115, 116, 117, 118, 119, 120, 121, 122, 123, 124, 125, 126, 127, 128
 129, 130, 131, 132, 133, 134, 135, 136, 137, 138, 139, 140, 141, 142, 143, 144
 145, 146, 147, 148, 149, 150, 151, 152, 153, 154, 155, 156, 157, 158, 159, 160
 161, 162
*Elset, elset=L2-I_ID, generate
   29,  3741,    29
*Nset, nset=L1-I_OD
   1,   5, 319, 320, 321, 322, 323, 324, 325, 326, 327, 328, 329, 330, 331, 332
 333, 334, 335, 336, 337, 338, 339, 340, 341, 342, 343, 344, 345, 346, 347, 348
 349, 350, 351, 352, 353, 354, 355, 356, 357, 358, 359, 360, 361, 362, 363, 364
 365, 366, 367, 368, 369, 370, 371, 372, 373, 374, 375, 376, 377, 378, 379, 380
 381, 382, 383, 384, 385, 386, 387, 388, 389, 390, 391, 392, 393, 394, 395, 396
 397, 398, 399, 400, 401, 402, 403, 404, 405, 406, 407, 408, 409, 410, 411, 412
 413, 414, 415, 416, 417, 418, 419, 420, 421, 422, 423, 424, 425, 426, 427, 428
 429, 430, 431, 432, 433, 434, 435, 436, 437, 438, 439, 440, 441, 442, 443, 444
 445, 446, 447, 448, 449, 450, 451, 452, 453, 454, 455, 456, 457, 458, 459, 460
 461, 462, 463, 464, 465, 466, 467, 468, 469, 470, 471, 472, 473, 474, 475, 476
 477, 478, 479, 480, 481, 482, 483, 484, 485, 486, 487, 488, 489, 490, 491, 492
 493, 494, 495, 496, 497, 498, 499, 500, 501, 502, 503, 504, 505, 506, 507, 508
 509, 510, 511, 512, 513, 514, 515, 516, 517, 518, 519, 520, 521, 522, 523, 524
 525, 526, 527, 528, 529, 530, 531, 532, 533, 534, 535, 536, 537, 538, 539, 540
 541, 542, 543, 544, 545, 546, 547, 548, 549, 550, 551, 552, 553, 554, 555, 556
 557, 558, 559, 560, 561, 562, 563, 564, 565, 566, 567, 568, 569, 570, 571, 572
 573, 574, 575, 576, 577, 578, 579, 580, 581, 582, 583, 584, 585, 586, 587, 588
 589, 590, 591, 592, 593, 594, 595, 596, 597
*Elset, elset=L1-I_OD, generate
  3770,  11861,     29
*Nset, nset=L2-I_OD
   1,   4, 191, 192, 193, 194, 195, 196, 197, 198, 199, 200, 201, 202, 203, 204
 205, 206, 207, 208, 209, 210, 211, 212, 213, 214, 215, 216, 217, 218, 219, 220
 221, 222, 223, 224, 225, 226, 227, 228, 229, 230, 231, 232, 233, 234, 235, 236
 237, 238, 239, 240, 241, 242, 243, 244, 245, 246, 247, 248, 249, 250, 251, 252
 253, 254, 255, 256, 257, 258, 259, 260, 261, 262, 263, 264, 265, 266, 267, 268
 269, 270, 271, 272, 273, 274, 275, 276, 277, 278, 279, 280, 281, 282, 283, 284
 285, 286, 287, 288, 289, 290, 291, 292, 293, 294, 295, 296, 297, 298, 299, 300
 301, 302, 303, 304, 305, 306, 307, 308, 309, 310, 311, 312, 313, 314, 315, 316
 317, 318
*Elset, elset=L2-I_OD, generate
    1,  3713,    29
*Nset, nset=L1-I_TOP
   5,   6, 598, 599, 600, 601, 602, 603, 604, 605, 606, 607, 608, 609, 610, 611
 612, 613, 614, 615, 616, 617, 618, 619, 620, 621, 622, 623, 624, 625
*Elset, elset=L1-I_TOP, generate
 11833,  11861,      1
*Nset, nset=L2-I_TOP
  1,  2,  7,  8,  9, 10, 11, 12, 13, 14, 15, 16, 17, 18, 19, 20
 21, 22, 23, 24, 25, 26, 27, 28, 29, 30, 31, 32, 33, 34
*Elset, elset=L2-I_TOP
    1,    2,    3,    4,    5,    6,    7,    8,    9,   10,   11,   12,   13,   14,   15,   16
   17,   18,   19,   20,   21,   22,   23,   24,   25,   26,   27,   28,   29, 3742, 3743, 3744
 3745, 3746, 3747, 3748, 3749, 3750, 3751, 3752, 3753, 3754, 3755, 3756, 3757, 3758, 3759, 3760
 3761, 3762, 3763, 3764, 3765, 3766, 3767, 3768, 3769, 3770
*Nset, nset=L1-I
     1,     2,     5,     6,     7,     8,     9,    10,    11,    12,    13,    14,    15,    16,    17,    18
    19,    20,    21,    22,    23,    24,    25,    26,    27,    28,    29,    30,    31,    32,    33,    34
   319,   320,   321,   322,   323,   324,   325,   326,   327,   328,   329,   330,   331,   332,   333,   334
   335,   336,   337,   338,   339,   340,   341,   342,   343,   344,   345,   346,   347,   348,   349,   350
   351,   352,   353,   354,   355,   356,   357,   358,   359,   360,   361,   362,   363,   364,   365,   366
   367,   368,   369,   370,   371,   372,   373,   374,   375,   376,   377,   378,   379,   380,   381,   382
   383,   384,   385,   386,   387,   388,   389,   390,   391,   392,   393,   394,   395,   396,   397,   398
   399,   400,   401,   402,   403,   404,   405,   406,   407,   408,   409,   410,   411,   412,   413,   414
   415,   416,   417,   418,   419,   420,   421,   422,   423,   424,   425,   426,   427,   428,   429,   430
   431,   432,   433,   434,   435,   436,   437,   438,   439,   440,   441,   442,   443,   444,   445,   446
   447,   448,   449,   450,   451,   452,   453,   454,   455,   456,   457,   458,   459,   460,   461,   462
   463,   464,   465,   466,   467,   468,   469,   470,   471,   472,   473,   474,   475,   476,   477,   478
   479,   480,   481,   482,   483,   484,   485,   486,   487,   488,   489,   490,   491,   492,   493,   494
   495,   496,   497,   498,   499,   500,   501,   502,   503,   504,   505,   506,   507,   508,   509,   510
   511,   512,   513,   514,   515,   516,   517,   518,   519,   520,   521,   522,   523,   524,   525,   526
   527,   528,   529,   530,   531,   532,   533,   534,   535,   536,   537,   538,   539,   540,   541,   542
   543,   544,   545,   546,   547,   548,   549,   550,   551,   552,   553,   554,   555,   556,   557,   558
   559,   560,   561,   562,   563,   564,   565,   566,   567,   568,   569,   570,   571,   572,   573,   574
   575,   576,   577,   578,   579,   580,   581,   582,   583,   584,   585,   586,   587,   588,   589,   590
   591,   592,   593,   594,   595,   596,   597,   598,   599,   600,   601,   602,   603,   604,   605,   606
** ... 507 like lines cut
*Elset, elset=L1-I, generate
  3742,  11861,      1
*Nset, nset=L2-I
    1,    2,    3,    4,    7,    8,    9,   10,   11,   12,   13,   14,   15,   16,   17,   18
   19,   20,   21,   22,   23,   24,   25,   26,   27,   28,   29,   30,   31,   32,   33,   34
   35,   36,   37,   38,   39,   40,   41,   42,   43,   44,   45,   46,   47,   48,   49,   50
   51,   52,   53,   54,   55,   56,   57,   58,   59,   60,   61,   62,   63,   64,   65,   66
   67,   68,   69,   70,   71,   72,   73,   74,   75,   76,   77,   78,   79,   80,   81,   82
   83,   84,   85,   86,   87,   88,   89,   90,   91,   92,   93,   94,   95,   96,   97,   98
   99,  100,  101,  102,  103,  104,  105,  106,  107,  108,  109,  110,  111,  112,  113,  114
  115,  116,  117,  118,  119,  120,  121,  122,  123,  124,  125,  126,  127,  128,  129,  130
  131,  132,  133,  134,  135,  136,  137,  138,  139,  140,  141,  142,  143,  144,  145,  146
  147,  148,  149,  150,  151,  152,  153,  154,  155,  156,  157,  158,  159,  160,  161,  162
  163,  164,  165,  166,  167,  168,  169,  170,  171,  172,  173,  174,  175,  176,  177,  178
  179,  180,  181,  182,  183,  184,  185,  186,  187,  188,  189,  190,  191,  192,  193,  194
  195,  196,  197,  198,  199,  200,  201,  202,  203,  204,  205,  206,  207,  208,  209,  210
  211,  212,  213,  214,  215,  216,  217,  218,  219,  220,  221,  222,  223,  224,  225,  226
  227,  228,  229,  230,  231,  232,  233,  234,  235,  236,  237,  238,  239,  240,  241,  242
  243,  244,  245,  246,  247,  248,  249,  250,  251,  252,  253,  254,  255,  256,  257,  258
  259,  260,  261,  262,  263,  264,  265,  266,  267,  268,  269,  270,  271,  272,  273,  274
  275,  276,  277,  278,  279,  280,  281,  282,  283,  284,  285,  286,  287,  288,  289,  290
  291,  292,  293,  294,  295,  296,  297,  298,  299,  300,  301,  302,  303,  304,  305,  306
  307,  308,  309,  310,  311,  312,  313,  314,  315,  316,  317,  318,  905,  906,  907,  908
** ... 224 like lines cut
*Elset, elset=L2-I, generate
    1,  3741,     1
** Section: LAYER_02_HALITE_Section
*Solid Section, elset=L2-I, material=LAYER_02_HALITE
1.,
** Section: LAYER_01_SANDSTONE_Section
*Solid Section, elset=L1-I, material=LAYER_01_SANDSTONE
1.,
*End Instance
**  
*Nset, nset=ALL, instance=FLUID_INST, generate
    1,  2050,     1
*Nset, nset=ALL, instance=PIPE_INST, generate
    1,  2050,     1
*Nset, nset=ALL, instance=ROCK_INST, generate
     1,  12300,      1
*Elset, elset=ALL, instance=FLUID_INST, generate
    1,  1636,     1
*Elset, elset=ALL, instance=PIPE_INST, generate
    1,  1636,     1
*Elset, elset=ALL, instance=ROCK_INST, generate
     1,  11861,      1
*Nset, nset=FASEI, instance=FLUID_INST, generate
    1,  2050,     1
*Nset, nset=FASEI, instance=PIPE_INST, generate
    1,  2050,     1
*Elset, elset=FASEI, instance=FLUID_INST, generate
    1,  1636,     1
*Elset, elset=FASEI, instance=PIPE_INST, generate
    1,  1636,     1
*Nset, nset=FASEI_COMPLETED_WELL, instance=PIPE_INST
   2,   3,   6,  10,  11,  12,  13,  14,  15,  16,  17,  18,  19,  20,  21,  22
  23,  24,  25,  26,  27,  28,  29,  30,  31,  32,  33,  34,  35,  36,  37,  38
  39,  40,  41,  42,  43,  44,  45,  46,  47,  48,  49,  50,  51,  52,  53,  54
  55,  56,  57,  58,  59,  60,  61,  62,  63,  64,  65,  66,  67,  68,  69,  70
  71,  72,  73,  74,  75,  76,  77,  78,  79,  80,  81,  82,  83,  84,  85,  86
  87,  88,  89,  90,  91,  92,  93,  94,  95,  96,  97,  98,  99, 100, 101, 102
 103, 104, 105, 106, 107, 108, 109, 110, 111, 112, 113, 114, 115, 116, 117, 118
 119, 120, 121, 122, 123, 124, 125, 126, 127, 128, 129, 130, 131, 132, 133, 134
 135, 136, 137, 551, 552, 553, 554, 555, 556, 557, 558, 559, 560, 561, 562, 563
 564, 565, 566, 567, 568, 569, 570, 571, 572, 573, 574, 575, 576, 577, 578, 579
 580, 581, 582, 583, 584, 585, 586, 587, 588, 589, 590, 591, 592, 593, 594, 595
 596, 597, 598, 599, 600, 601, 602, 603, 604, 605, 606, 607, 608, 609, 610, 611
 612, 613, 614, 615, 616, 617, 618, 619, 620, 621, 622, 623, 624, 625, 626, 627
 628, 629, 630, 631, 632, 633, 634, 635, 636, 637, 638, 639, 640, 641, 642, 643
 644, 645, 646, 647, 648, 649, 650, 651, 652, 653, 654, 655, 656, 657, 658, 659
 660, 661, 662, 663, 664, 665, 666, 667, 668, 669, 670, 671, 672, 673, 674, 675
 676, 677, 678, 679, 680, 681, 682, 683, 684, 685, 686, 687, 688, 689, 690, 691
 692, 693, 694, 695, 696, 697, 698, 699, 700, 701, 702, 703, 704, 705, 706, 707
 708, 709, 710, 711, 712, 713, 714, 715, 716, 717, 718, 719, 720, 721, 722, 723
 724, 725, 726, 727, 728, 729, 730, 731, 732, 733, 734, 735, 736, 737, 738, 739
** ... 6 like lines cut
*Elset, elset=FASEI_COMPLETED_WELL, instance=PIPE_INST
    4,    8,   12,   16,   20,   24,   28,   32,   36,   40,   44,   48,   52,   56,   60,   64
   68,   72,   76,   80,   84,   88,   92,   96,  100,  104,  108,  112,  116,  120,  124,  128
  132,  136,  140,  144,  148,  152,  156,  160,  164,  168,  172,  176,  180,  184,  188,  192
  196,  200,  204,  208,  212,  216,  220,  224,  228,  232,  236,  240,  244,  248,  252,  256
  260,  264,  268,  272,  276,  280,  284,  288,  292,  296,  300,  304,  308,  312,  316,  320
  324,  328,  332,  336,  340,  344,  348,  352,  356,  360,  364,  368,  372,  376,  380,  384
  388,  392,  396,  400,  404,  408,  412,  416,  420,  424,  428,  432,  436,  440,  444,  448
  452,  456,  460,  464,  468,  472,  476,  480,  484,  488,  492,  496,  500,  504,  508,  512
  516,  517,  521,  525,  529,  533,  537,  541,  545,  549,  553,  557,  561,  565,  569,  573
  577,  581,  585,  589,  593,  597,  601,  605,  609,  613,  617,  621,  625,  629,  633,  637
  641,  645,  649,  653,  657,  661,  665,  669,  673,  677,  681,  685,  689,  693,  697,  701
  705,  709,  713,  717,  721,  725,  729,  733,  737,  741,  745,  749,  753,  757,  761,  765
  769,  773,  777,  781,  785,  789,  793,  797,  801,  805,  809,  813,  817,  821,  825,  829
  833,  837,  841,  845,  849,  853,  857,  861,  865,  869,  873,  877,  881,  885,  889,  893
  897,  901,  905,  909,  913,  917,  921,  925,  929,  933,  937,  941,  945,  949,  953,  957
  961,  965,  969,  973,  977,  981,  985,  989,  993,  997, 1001, 1005, 1009, 1013, 1017, 1021
 1025, 1029, 1033, 1037, 1041, 1045, 1049, 1053, 1057, 1061, 1065, 1069, 1073, 1077, 1081, 1085
 1089, 1093, 1097, 1101, 1105, 1109, 1113, 1117, 1121, 1125, 1129, 1133, 1137, 1141, 1145, 1149
 1153, 1157, 1161, 1165, 1169, 1173, 1177, 1181, 1185, 1189, 1193, 1197, 1201, 1205, 1209, 1213
 1217, 1221, 1225, 1229, 1233, 1237, 1241, 1245, 1249, 1253, 1257, 1261, 1265, 1269, 1273, 1277
** ... 6 like lines cut
*Nset, nset=FASEI_OPEN_WELL, instance=ROCK_INST
   2,   3,   6,  35,  36,  37,  38,  39,  40,  41,  42,  43,  44,  45,  46,  47
  48,  49,  50,  51,  52,  53,  54,  55,  56,  57,  58,  59,  60,  61,  62,  63
  64,  65,  66,  67,  68,  69,  70,  71,  72,  73,  74,  75,  76,  77,  78,  79
  80,  81,  82,  83,  84,  85,  86,  87,  88,  89,  90,  91,  92,  93,  94,  95
  96,  97,  98,  99, 100, 101, 102, 103, 104, 105, 106, 107, 108, 109, 110, 111
 112, 113, 114, 115, 116, 117, 118, 119, 120, 121, 122, 123, 124, 125, 126, 127
 128, 129, 130, 131, 132, 133, 134, 135, 136, 137, 138, 139, 140, 141, 142, 143
 144, 145, 146, 147, 148, 149, 150, 151, 152, 153, 154, 155, 156, 157, 158, 159
 160, 161, 162, 626, 627, 628, 629, 630, 631, 632, 633, 634, 635, 636, 637, 638
 639, 640, 641, 642, 643, 644, 645, 646, 647, 648, 649, 650, 651, 652, 653, 654
 655, 656, 657, 658, 659, 660, 661, 662, 663, 664, 665, 666, 667, 668, 669, 670
 671, 672, 673, 674, 675, 676, 677, 678, 679, 680, 681, 682, 683, 684, 685, 686
 687, 688, 689, 690, 691, 692, 693, 694, 695, 696, 697, 698, 699, 700, 701, 702
 703, 704, 705, 706, 707, 708, 709, 710, 711, 712, 713, 714, 715, 716, 717, 718
 719, 720, 721, 722, 723, 724, 725, 726, 727, 728, 729, 730, 731, 732, 733, 734
 735, 736, 737, 738, 739, 740, 741, 742, 743, 744, 745, 746, 747, 748, 749, 750
 751, 752, 753, 754, 755, 756, 757, 758, 759, 760, 761, 762, 763, 764, 765, 766
 767, 768, 769, 770, 771, 772, 773, 774, 775, 776, 777, 778, 779, 780, 781, 782
 783, 784, 785, 786, 787, 788, 789, 790, 791, 792, 793, 794, 795, 796, 797, 798
 799, 800, 801, 802, 803, 804, 805, 806, 807, 808, 809, 810, 811, 812, 813, 814
** ... 6 like lines cut
*Elset, elset=FASEI_OPEN_WELL, instance=ROCK_INST
    29,    58,    87,   116,   145,   174,   203,   232,   261,   290,   319,   348,   377,   406,   435,   464
   493,   522,   551,   580,   609,   638,   667,   696,   725,   754,   783,   812,   841,   870,   899,   928
   957,   986,  1015,  1044,  1073,  1102,  1131,  1160,  1189,  1218,  1247,  1276,  1305,  1334,  1363,  1392
  1421,  1450,  1479,  1508,  1537,  1566,  1595,  1624,  1653,  1682,  1711,  1740,  1769,  1798,  1827,  1856
  1885,  1914,  1943,  1972,  2001,  2030,  2059,  2088,  2117,  2146,  2175,  2204,  2233,  2262,  2291,  2320
  2349,  2378,  2407,  2436,  2465,  2494,  2523,  2552,  2581,  2610,  2639,  2668,  2697,  2726,  2755,  2784
  2813,  2842,  2871,  2900,  2929,  2958,  2987,  3016,  3045,  3074,  3103,  3132,  3161,  3190,  3219,  3248
  3277,  3306,  3335,  3364,  3393,  3422,  3451,  3480,  3509,  3538,  3567,  3596,  3625,  3654,  3683,  3712
  3741,  3742,  3771,  3800,  3829,  3858,  3887,  3916,  3945,  3974,  4003,  4032,  4061,  4090,  4119,  4148
  4177,  4206,  4235,  4264,  4293,  4322,  4351,  4380,  4409,  4438,  4467,  4496,  4525,  4554,  4583,  4612
  4641,  4670,  4699,  4728,  4757,  4786,  4815,  4844,  4873,  4902,  4931,  4960,  4989,  5018,  5047,  5076
  5105,  5134,  5163,  5192,  5221,  5250,  5279,  5308,  5337,  5366,  5395,  5424,  5453,  5482,  5511,  5540
  5569,  5598,  5627,  5656,  5685,  5714,  5743,  5772,  5801,  5830,  5859,  5888,  5917,  5946,  5975,  6004
  6033,  6062,  6091,  6120,  6149,  6178,  6207,  6236,  6265,  6294,  6323,  6352,  6381,  6410,  6439,  6468
  6497,  6526,  6555,  6584,  6613,  6642,  6671,  6700,  6729,  6758,  6787,  6816,  6845,  6874,  6903,  6932
  6961,  6990,  7019,  7048,  7077,  7106,  7135,  7164,  7193,  7222,  7251,  7280,  7309,  7338,  7367,  7396
  7425,  7454,  7483,  7512,  7541,  7570,  7599,  7628,  7657,  7686,  7715,  7744,  7773,  7802,  7831,  7860
  7889,  7918,  7947,  7976,  8005,  8034,  8063,  8092,  8121,  8150,  8179,  8208,  8237,  8266,  8295,  8324
  8353,  8382,  8411,  8440,  8469,  8498,  8527,  8556,  8585,  8614,  8643,  8672,  8701,  8730,  8759,  8788
  8817,  8846,  8875,  8904,  8933,  8962,  8991,  9020,  9049,  9078,  9107,  9136,  9165,  9194,  9223,  9252
** ... 6 like lines cut
*Nset, nset=FASEI_WELL, instance=ROCK_INST
   2,   3,   6,  35,  36,  37,  38,  39,  40,  41,  42,  43,  44,  45,  46,  47
  48,  49,  50,  51,  52,  53,  54,  55,  56,  57,  58,  59,  60,  61,  62,  63
  64,  65,  66,  67,  68,  69,  70,  71,  72,  73,  74,  75,  76,  77,  78,  79
  80,  81,  82,  83,  84,  85,  86,  87,  88,  89,  90,  91,  92,  93,  94,  95
  96,  97,  98,  99, 100, 101, 102, 103, 104, 105, 106, 107, 108, 109, 110, 111
 112, 113, 114, 115, 116, 117, 118, 119, 120, 121, 122, 123, 124, 125, 126, 127
 128, 129, 130, 131, 132, 133, 134, 135, 136, 137, 138, 139, 140, 141, 142, 143
 144, 145, 146, 147, 148, 149, 150, 151, 152, 153, 154, 155, 156, 157, 158, 159
 160, 161, 162, 626, 627, 628, 629, 630, 631, 632, 633, 634, 635, 636, 637, 638
 639, 640, 641, 642, 643, 644, 645, 646, 647, 648, 649, 650, 651, 652, 653, 654
 655, 656, 657, 658, 659, 660, 661, 662, 663, 664, 665, 666, 667, 668, 669, 670
 671, 672, 673, 674, 675, 676, 677, 678, 679, 680, 681, 682, 683, 684, 685, 686
 687, 688, 689, 690, 691, 692, 693, 694, 695, 696, 697, 698, 699, 700, 701, 702
 703, 704, 705, 706, 707, 708, 709, 710, 711, 712, 713, 714, 715, 716, 717, 718
 719, 720, 721, 722, 723, 724, 725, 726, 727, 728, 729, 730, 731, 732, 733, 734
 735, 736, 737, 738, 739, 740, 741, 742, 743, 744, 745, 746, 747, 748, 749, 750
 751, 752, 753, 754, 755, 756, 757, 758, 759, 760, 761, 762, 763, 764, 765, 766
 767, 768, 769, 770, 771, 772, 773, 774, 775, 776, 777, 778, 779, 780, 781, 782
 783, 784, 785, 786, 787, 788, 789, 790, 791, 792, 793, 794, 795, 796, 797, 798
 799, 800, 801, 802, 803, 804, 805, 806, 807, 808, 809, 810, 811, 812, 813, 814
** ... 6 like lines cut
*Elset, elset=FASEI_WELL, instance=ROCK_INST
    29,    58,    87,   116,   145,   174,   203,   232,   261,   290,   319,   348,   377,   406,   435,   464
   493,   522,   551,   580,   609,   638,   667,   696,   725,   754,   783,   812,   841,   870,   899,   928
   957,   986,  1015,  1044,  1073,  1102,  1131,  1160,  1189,  1218,  1247,  1276,  1305,  1334,  1363,  1392
  1421,  1450,  1479,  1508,  1537,  1566,  1595,  1624,  1653,  1682,  1711,  1740,  1769,  1798,  1827,  1856
  1885,  1914,  1943,  1972,  2001,  2030,  2059,  2088,  2117,  2146,  2175,  2204,  2233,  2262,  2291,  2320
  2349,  2378,  2407,  2436,  2465,  2494,  2523,  2552,  2581,  2610,  2639,  2668,  2697,  2726,  2755,  2784
  2813,  2842,  2871,  2900,  2929,  2958,  2987,  3016,  3045,  3074,  3103,  3132,  3161,  3190,  3219,  3248
  3277,  3306,  3335,  3364,  3393,  3422,  3451,  3480,  3509,  3538,  3567,  3596,  3625,  3654,  3683,  3712
  3741,  3742,  3771,  3800,  3829,  3858,  3887,  3916,  3945,  3974,  4003,  4032,  4061,  4090,  4119,  4148
  4177,  4206,  4235,  4264,  4293,  4322,  4351,  4380,  4409,  4438,  4467,  4496,  4525,  4554,  4583,  4612
  4641,  4670,  4699,  4728,  4757,  4786,  4815,  4844,  4873,  4902,  4931,  4960,  4989,  5018,  5047,  5076
  5105,  5134,  5163,  5192,  5221,  5250,  5279,  5308,  5337,  5366,  5395,  5424,  5453,  5482,  5511,  5540
  5569,  5598,  5627,  5656,  5685,  5714,  5743,  5772,  5801,  5830,  5859,  5888,  5917,  5946,  5975,  6004
  6033,  6062,  6091,  6120,  6149,  6178,  6207,  6236,  6265,  6294,  6323,  6352,  6381,  6410,  6439,  6468
  6497,  6526,  6555,  6584,  6613,  6642,  6671,  6700,  6729,  6758,  6787,  6816,  6845,  6874,  6903,  6932
  6961,  6990,  7019,  7048,  7077,  7106,  7135,  7164,  7193,  7222,  7251,  7280,  7309,  7338,  7367,  7396
  7425,  7454,  7483,  7512,  7541,  7570,  7599,  7628,  7657,  7686,  7715,  7744,  7773,  7802,  7831,  7860
  7889,  7918,  7947,  7976,  8005,  8034,  8063,  8092,  8121,  8150,  8179,  8208,  8237,  8266,  8295,  8324
  8353,  8382,  8411,  8440,  8469,  8498,  8527,  8556,  8585,  8614,  8643,  8672,  8701,  8730,  8759,  8788
  8817,  8846,  8875,  8904,  8933,  8962,  8991,  9020,  9049,  9078,  9107,  9136,  9165,  9194,  9223,  9252
** ... 6 like lines cut
*Nset, nset=MESH_TT_ANNULARS, instance=FLUID_INST
   1,   2,   3,   4,   5,   6,   7,   8,   9, 138, 139, 140, 548, 549, 550
*Elset, elset=MESH_TT_ANNULARS, instance=FLUID_INST
    1,    2,    3,    4,  513,  514,  515,  516,  517,  518,  519,  520, 1633, 1634, 1635, 1636
*Nset, nset=MESH_TT_PIPES, instance=PIPE_INST
   1,   2,   3,   4,   5,   6,   7,   8,   9, 138, 139, 140, 548, 549, 550
*Elset, elset=MESH_TT_PIPES, instance=PIPE_INST
    1,    2,    3,    4,  513,  514,  515,  516,  517,  518,  519,  520, 1633, 1634, 1635, 1636
*Nset, nset=MESH_TT_ROCK, instance=ROCK_INST
   1,   2,   3,   4,   5,   6,   7,   8,   9,  10,  11,  12,  13,  14,  15,  16
  17,  18,  19,  20,  21,  22,  23,  24,  25,  26,  27,  28,  29,  30,  31,  32
  33,  34, 163, 164, 165, 166, 167, 168, 169, 170, 171, 172, 173, 174, 175, 176
 177, 178, 179, 180, 181, 182, 183, 184, 185, 186, 187, 188, 189, 190, 598, 599
 600, 601, 602, 603, 604, 605, 606, 607, 608, 609, 610, 611, 612, 613, 614, 615
 616, 617, 618, 619, 620, 621, 622, 623, 624, 625
*Elset, elset=MESH_TT_ROCK, instance=ROCK_INST
     1,     2,     3,     4,     5,     6,     7,     8,     9,    10,    11,    12,    13,    14,    15,    16
    17,    18,    19,    20,    21,    22,    23,    24,    25,    26,    27,    28,    29,  3713,  3714,  3715
  3716,  3717,  3718,  3719,  3720,  3721,  3722,  3723,  3724,  3725,  3726,  3727,  3728,  3729,  3730,  3731
  3732,  3733,  3734,  3735,  3736,  3737,  3738,  3739,  3740,  3741,  3742,  3743,  3744,  3745,  3746,  3747
  3748,  3749,  3750,  3751,  3752,  3753,  3754,  3755,  3756,  3757,  3758,  3759,  3760,  3761,  3762,  3763
  3764,  3765,  3766,  3767,  3768,  3769,  3770, 11833, 11834, 11835, 11836, 11837, 11838, 11839, 11840, 11841
 11842, 11843, 11844, 11845, 11846, 11847, 11848, 11849, 11850, 11851, 11852, 11853, 11854, 11855, 11856, 11857
 11858, 11859, 11860, 11861
*Nset, nset=MESH_VERTICAL, instance=FLUID_INST
   1,   2,   3,   4,   5,   6,  10,  11,  12,  13,  14,  15,  16,  17,  18,  19
  20,  21,  22,  23,  24,  25,  26,  27,  28,  29,  30,  31,  32,  33,  34,  35
  36,  37,  38,  39,  40,  41,  42,  43,  44,  45,  46,  47,  48,  49,  50,  51
  52,  53,  54,  55,  56,  57,  58,  59,  60,  61,  62,  63,  64,  65,  66,  67
  68,  69,  70,  71,  72,  73,  74,  75,  76,  77,  78,  79,  80,  81,  82,  83
  84,  85,  86,  87,  88,  89,  90,  91,  92,  93,  94,  95,  96,  97,  98,  99
 100, 101, 102, 103, 104, 105, 106, 107, 108, 109, 110, 111, 112, 113, 114, 115
 116, 117, 118, 119, 120, 121, 122, 123, 124, 125, 126, 127, 128, 129, 130, 131
 132, 133, 134, 135, 136, 137, 141, 142, 143, 144, 145, 146, 147, 148, 149, 150
 151, 152, 153, 154, 155, 156, 157, 158, 159, 160, 161, 162, 163, 164, 165, 166
 167, 168, 169, 170, 171, 172, 173, 174, 175, 176, 177, 178, 179, 180, 181, 182
 183, 184, 185, 186, 187, 188, 189, 190, 191, 192, 193, 194, 195, 196, 197, 198
 199, 200, 201, 202, 203, 204, 205, 206, 207, 208, 209, 210, 211, 212, 213, 214
 215, 216, 217, 218, 219, 220, 221, 222, 223, 224, 225, 226, 227, 228, 229, 230
 231, 232, 233, 234, 235, 236, 237, 238, 239, 240, 241, 242, 243, 244, 245, 246
 247, 248, 249, 250, 251, 252, 253, 254, 255, 256, 257, 258, 259, 260, 261, 262
 263, 264, 265, 266, 267, 268, 269, 270, 271, 272, 273, 274, 275, 276, 277, 278
 279, 280, 281, 282, 283, 284, 285, 286, 287, 288, 289, 290, 291, 292, 293, 294
 295, 296, 297, 298, 299, 300, 301, 302, 303, 304, 305, 306, 307, 308, 309, 310
 311, 312, 313, 314, 315, 316, 317, 318, 319, 320, 321, 322, 323, 324, 325, 326
** ... 32 like lines cut
*Nset, nset=MESH_VERTICAL, instance=PIPE_INST
   1,   2,   3,   4,   5,   6,  10,  11,  12,  13,  14,  15,  16,  17,  18,  19
  20,  21,  22,  23,  24,  25,  26,  27,  28,  29,  30,  31,  32,  33,  34,  35
  36,  37,  38,  39,  40,  41,  42,  43,  44,  45,  46,  47,  48,  49,  50,  51
  52,  53,  54,  55,  56,  57,  58,  59,  60,  61,  62,  63,  64,  65,  66,  67
  68,  69,  70,  71,  72,  73,  74,  75,  76,  77,  78,  79,  80,  81,  82,  83
  84,  85,  86,  87,  88,  89,  90,  91,  92,  93,  94,  95,  96,  97,  98,  99
 100, 101, 102, 103, 104, 105, 106, 107, 108, 109, 110, 111, 112, 113, 114, 115
 116, 117, 118, 119, 120, 121, 122, 123, 124, 125, 126, 127, 128, 129, 130, 131
 132, 133, 134, 135, 136, 137, 141, 142, 143, 144, 145, 146, 147, 148, 149, 150
 151, 152, 153, 154, 155, 156, 157, 158, 159, 160, 161, 162, 163, 164, 165, 166
 167, 168, 169, 170, 171, 172, 173, 174, 175, 176, 177, 178, 179, 180, 181, 182
 183, 184, 185, 186, 187, 188, 189, 190, 191, 192, 193, 194, 195, 196, 197, 198
 199, 200, 201, 202, 203, 204, 205, 206, 207, 208, 209, 210, 211, 212, 213, 214
 215, 216, 217, 218, 219, 220, 221, 222, 223, 224, 225, 226, 227, 228, 229, 230
 231, 232, 233, 234, 235, 236, 237, 238, 239, 240, 241, 242, 243, 244, 245, 246
 247, 248, 249, 250, 251, 252, 253, 254, 255, 256, 257, 258, 259, 260, 261, 262
 263, 264, 265, 266, 267, 268, 269, 270, 271, 272, 273, 274, 275, 276, 277, 278
 279, 280, 281, 282, 283, 284, 285, 286, 287, 288, 289, 290, 291, 292, 293, 294
 295, 296, 297, 298, 299, 300, 301, 302, 303, 304, 305, 306, 307, 308, 309, 310
 311, 312, 313, 314, 315, 316, 317, 318, 319, 320, 321, 322, 323, 324, 325, 326
** ... 32 like lines cut
*Nset, nset=MESH_VERTICAL, instance=ROCK_INST
   1,   2,   3,   4,   5,   6,  35,  36,  37,  38,  39,  40,  41,  42,  43,  44
  45,  46,  47,  48,  49,  50,  51,  52,  53,  54,  55,  56,  57,  58,  59,  60
  61,  62,  63,  64,  65,  66,  67,  68,  69,  70,  71,  72,  73,  74,  75,  76
  77,  78,  79,  80,  81,  82,  83,  84,  85,  86,  87,  88,  89,  90,  91,  92
  93,  94,  95,  96,  97,  98,  99, 100, 101, 102, 103, 104, 105, 106, 107, 108
 109, 110, 111, 112, 113, 114, 115, 116, 117, 118, 119, 120, 121, 122, 123, 124
 125, 126, 127, 128, 129, 130, 131, 132, 133, 134, 135, 136, 137, 138, 139, 140
 141, 142, 143, 144, 145, 146, 147, 148, 149, 150, 151, 152, 153, 154, 155, 156
 157, 158, 159, 160, 161, 162, 191, 192, 193, 194, 195, 196, 197, 198, 199, 200
 201, 202, 203, 204, 205, 206, 207, 208, 209, 210, 211, 212, 213, 214, 215, 216
 217, 218, 219, 220, 221, 222, 223, 224, 225, 226, 227, 228, 229, 230, 231, 232
 233, 234, 235, 236, 237, 238, 239, 240, 241, 242, 243, 244, 245, 246, 247, 248
 249, 250, 251, 252, 253, 254, 255, 256, 257, 258, 259, 260, 261, 262, 263, 264
 265, 266, 267, 268, 269, 270, 271, 272, 273, 274, 275, 276, 277, 278, 279, 280
 281, 282, 283, 284, 285, 286, 287, 288, 289, 290, 291, 292, 293, 294, 295, 296
 297, 298, 299, 300, 301, 302, 303, 304, 305, 306, 307, 308, 309, 310, 311, 312
 313, 314, 315, 316, 317, 318, 319, 320, 321, 322, 323, 324, 325, 326, 327, 328
 329, 330, 331, 332, 333, 334, 335, 336, 337, 338, 339, 340, 341, 342, 343, 344
 345, 346, 347, 348, 349, 350, 351, 352, 353, 354, 355, 356, 357, 358, 359, 360
 361, 362, 363, 364, 365, 366, 367, 368, 369, 370, 371, 372, 373, 374, 375, 376
** ... 32 like lines cut
*Elset, elset=MESH_VERTICAL, instance=FLUID_INST
    1,    4,    5,    8,    9,   12,   13,   16,   17,   20,   21,   24,   25,   28,   29,   32
   33,   36,   37,   40,   41,   44,   45,   48,   49,   52,   53,   56,   57,   60,   61,   64
   65,   68,   69,   72,   73,   76,   77,   80,   81,   84,   85,   88,   89,   92,   93,   96
   97,  100,  101,  104,  105,  108,  109,  112,  113,  116,  117,  120,  121,  124,  125,  128
  129,  132,  133,  136,  137,  140,  141,  144,  145,  148,  149,  152,  153,  156,  157,  160
  161,  164,  165,  168,  169,  172,  173,  176,  177,  180,  181,  184,  185,  188,  189,  192
  193,  196,  197,  200,  201,  204,  205,  208,  209,  212,  213,  216,  217,  220,  221,  224
  225,  228,  229,  232,  233,  236,  237,  240,  241,  244,  245,  248,  249,  252,  253,  256
  257,  260,  261,  264,  265,  268,  269,  272,  273,  276,  277,  280,  281,  284,  285,  288
  289,  292,  293,  296,  297,  300,  301,  304,  305,  308,  309,  312,  313,  316,  317,  320
  321,  324,  325,  328,  329,  332,  333,  336,  337,  340,  341,  344,  345,  348,  349,  352
  353,  356,  357,  360,  361,  364,  365,  368,  369,  372,  373,  376,  377,  380,  381,  384
  385,  388,  389,  392,  393,  396,  397,  400,  401,  404,  405,  408,  409,  412,  413,  416
  417,  420,  421,  424,  425,  428,  429,  432,  433,  436,  437,  440,  441,  444,  445,  448
  449,  452,  453,  456,  457,  460,  461,  464,  465,  468,  469,  472,  473,  476,  477,  480
  481,  484,  485,  488,  489,  492,  493,  496,  497,  500,  501,  504,  505,  508,  509,  512
  513,  516,  517,  520,  521,  524,  525,  528,  529,  532,  533,  536,  537,  540,  541,  544
  545,  548,  549,  552,  553,  556,  557,  560,  561,  564,  565,  568,  569,  572,  573,  576
  577,  580,  581,  584,  585,  588,  589,  592,  593,  596,  597,  600,  601,  604,  605,  608
  609,  612,  613,  616,  617,  620,  621,  624,  625,  628,  629,  632,  633,  636,  637,  640
** ... 32 like lines cut
*Elset, elset=MESH_VERTICAL, instance=PIPE_INST
    1,    4,    5,    8,    9,   12,   13,   16,   17,   20,   21,   24,   25,   28,   29,   32
   33,   36,   37,   40,   41,   44,   45,   48,   49,   52,   53,   56,   57,   60,   61,   64
   65,   68,   69,   72,   73,   76,   77,   80,   81,   84,   85,   88,   89,   92,   93,   96
   97,  100,  101,  104,  105,  108,  109,  112,  113,  116,  117,  120,  121,  124,  125,  128
  129,  132,  133,  136,  137,  140,  141,  144,  145,  148,  149,  152,  153,  156,  157,  160
  161,  164,  165,  168,  169,  172,  173,  176,  177,  180,  181,  184,  185,  188,  189,  192
  193,  196,  197,  200,  201,  204,  205,  208,  209,  212,  213,  216,  217,  220,  221,  224
  225,  228,  229,  232,  233,  236,  237,  240,  241,  244,  245,  248,  249,  252,  253,  256
  257,  260,  261,  264,  265,  268,  269,  272,  273,  276,  277,  280,  281,  284,  285,  288
  289,  292,  293,  296,  297,  300,  301,  304,  305,  308,  309,  312,  313,  316,  317,  320
  321,  324,  325,  328,  329,  332,  333,  336,  337,  340,  341,  344,  345,  348,  349,  352
  353,  356,  357,  360,  361,  364,  365,  368,  369,  372,  373,  376,  377,  380,  381,  384
  385,  388,  389,  392,  393,  396,  397,  400,  401,  404,  405,  408,  409,  412,  413,  416
  417,  420,  421,  424,  425,  428,  429,  432,  433,  436,  437,  440,  441,  444,  445,  448
  449,  452,  453,  456,  457,  460,  461,  464,  465,  468,  469,  472,  473,  476,  477,  480
  481,  484,  485,  488,  489,  492,  493,  496,  497,  500,  501,  504,  505,  508,  509,  512
  513,  516,  517,  520,  521,  524,  525,  528,  529,  532,  533,  536,  537,  540,  541,  544
  545,  548,  549,  552,  553,  556,  557,  560,  561,  564,  565,  568,  569,  572,  573,  576
  577,  580,  581,  584,  585,  588,  589,  592,  593,  596,  597,  600,  601,  604,  605,  608
  609,  612,  613,  616,  617,  620,  621,  624,  625,  628,  629,  632,  633,  636,  637,  640
** ... 32 like lines cut
*Elset, elset=MESH_VERTICAL, instance=ROCK_INST
     1,    29,    30,    58,    59,    87,    88,   116,   117,   145,   146,   174,   175,   203,   204,   232
   233,   261,   262,   290,   291,   319,   320,   348,   349,   377,   378,   406,   407,   435,   436,   464
   465,   493,   494,   522,   523,   551,   552,   580,   581,   609,   610,   638,   639,   667,   668,   696
   697,   725,   726,   754,   755,   783,   784,   812,   813,   841,   842,   870,   871,   899,   900,   928
   929,   957,   958,   986,   987,  1015,  1016,  1044,  1045,  1073,  1074,  1102,  1103,  1131,  1132,  1160
  1161,  1189,  1190,  1218,  1219,  1247,  1248,  1276,  1277,  1305,  1306,  1334,  1335,  1363,  1364,  1392
  1393,  1421,  1422,  1450,  1451,  1479,  1480,  1508,  1509,  1537,  1538,  1566,  1567,  1595,  1596,  1624
  1625,  1653,  1654,  1682,  1683,  1711,  1712,  1740,  1741,  1769,  1770,  1798,  1799,  1827,  1828,  1856
  1857,  1885,  1886,  1914,  1915,  1943,  1944,  1972,  1973,  2001,  2002,  2030,  2031,  2059,  2060,  2088
  2089,  2117,  2118,  2146,  2147,  2175,  2176,  2204,  2205,  2233,  2234,  2262,  2263,  2291,  2292,  2320
  2321,  2349,  2350,  2378,  2379,  2407,  2408,  2436,  2437,  2465,  2466,  2494,  2495,  2523,  2524,  2552
  2553,  2581,  2582,  2610,  2611,  2639,  2640,  2668,  2669,  2697,  2698,  2726,  2727,  2755,  2756,  2784
  2785,  2813,  2814,  2842,  2843,  2871,  2872,  2900,  2901,  2929,  2930,  2958,  2959,  2987,  2988,  3016
  3017,  3045,  3046,  3074,  3075,  3103,  3104,  3132,  3133,  3161,  3162,  3190,  3191,  3219,  3220,  3248
  3249,  3277,  3278,  3306,  3307,  3335,  3336,  3364,  3365,  3393,  3394,  3422,  3423,  3451,  3452,  3480
  3481,  3509,  3510,  3538,  3539,  3567,  3568,  3596,  3597,  3625,  3626,  3654,  3655,  3683,  3684,  3712
  3713,  3741,  3742,  3770,  3771,  3799,  3800,  3828,  3829,  3857,  3858,  3886,  3887,  3915,  3916,  3944
  3945,  3973,  3974,  4002,  4003,  4031,  4032,  4060,  4061,  4089,  4090,  4118,  4119,  4147,  4148,  4176
  4177,  4205,  4206,  4234,  4235,  4263,  4264,  4292,  4293,  4321,  4322,  4350,  4351,  4379,  4380,  4408
  4409,  4437,  4438,  4466,  4467,  4495,  4496,  4524,  4525,  4553,  4554,  4582,  4583,  4611,  4612,  4640
** ... 32 like lines cut
*Nset, nset=ROCK_BC, instance=ROCK_INST
   1,   4,   5, 191, 192, 193, 194, 195, 196, 197, 198, 199, 200, 201, 202, 203
 204, 205, 206, 207, 208, 209, 210, 211, 212, 213, 214, 215, 216, 217, 218, 219
 220, 221, 222, 223, 224, 225, 226, 227, 228, 229, 230, 231, 232, 233, 234, 235
 236, 237, 238, 239, 240, 241, 242, 243, 244, 245, 246, 247, 248, 249, 250, 251
 252, 253, 254, 255, 256, 257, 258, 259, 260, 261, 262, 263, 264, 265, 266, 267
 268, 269, 270, 271, 272, 273, 274, 275, 276, 277, 278, 279, 280, 281, 282, 283
 284, 285, 286, 287, 288, 289, 290, 291, 292, 293, 294, 295, 296, 297, 298, 299
 300, 301, 302, 303, 304, 305, 306, 307, 308, 309, 310, 311, 312, 313, 314, 315
 316, 317, 318, 319, 320, 321, 322, 323, 324, 325, 326, 327, 328, 329, 330, 331
 332, 333, 334, 335, 336, 337, 338, 339, 340, 341, 342, 343, 344, 345, 346, 347
 348, 349, 350, 351, 352, 353, 354, 355, 356, 357, 358, 359, 360, 361, 362, 363
 364, 365, 366, 367, 368, 369, 370, 371, 372, 373, 374, 375, 376, 377, 378, 379
 380, 381, 382, 383, 384, 385, 386, 387, 388, 389, 390, 391, 392, 393, 394, 395
 396, 397, 398, 399, 400, 401, 402, 403, 404, 405, 406, 407, 408, 409, 410, 411
 412, 413, 414, 415, 416, 417, 418, 419, 420, 421, 422, 423, 424, 425, 426, 427
 428, 429, 430, 431, 432, 433, 434, 435, 436, 437, 438, 439, 440, 441, 442, 443
 444, 445, 446, 447, 448, 449, 450, 451, 452, 453, 454, 455, 456, 457, 458, 459
 460, 461, 462, 463, 464, 465, 466, 467, 468, 469, 470, 471, 472, 473, 474, 475
 476, 477, 478, 479, 480, 481, 482, 483, 484, 485, 486, 487, 488, 489, 490, 491
 492, 493, 494, 495, 496, 497, 498, 499, 500, 501, 502, 503, 504, 505, 506, 507
** ... 6 like lines cut
*Elset, elset=ROCK_BC, instance=ROCK_INST
     1,    30,    59,    88,   117,   146,   175,   204,   233,   262,   291,   320,   349,   378,   407,   436
   465,   494,   523,   552,   581,   610,   639,   668,   697,   726,   755,   784,   813,   842,   871,   900
   929,   958,   987,  1016,  1045,  1074,  1103,  1132,  1161,  1190,  1219,  1248,  1277,  1306,  1335,  1364
  1393,  1422,  1451,  1480,  1509,  1538,  1567,  1596,  1625,  1654,  1683,  1712,  1741,  1770,  1799,  1828
  1857,  1886,  1915,  1944,  1973,  2002,  2031,  2060,  2089,  2118,  2147,  2176,  2205,  2234,  2263,  2292
  2321,  2350,  2379,  2408,  2437,  2466,  2495,  2524,  2553,  2582,  2611,  2640,  2669,  2698,  2727,  2756
  2785,  2814,  2843,  2872,  2901,  2930,  2959,  2988,  3017,  3046,  3075,  3104,  3133,  3162,  3191,  3220
  3249,  3278,  3307,  3336,  3365,  3394,  3423,  3452,  3481,  3510,  3539,  3568,  3597,  3626,  3655,  3684
  3713,  3770,  3799,  3828,  3857,  3886,  3915,  3944,  3973,  4002,  4031,  4060,  4089,  4118,  4147,  4176
  4205,  4234,  4263,  4292,  4321,  4350,  4379,  4408,  4437,  4466,  4495,  4524,  4553,  4582,  4611,  4640
  4669,  4698,  4727,  4756,  4785,  4814,  4843,  4872,  4901,  4930,  4959,  4988,  5017,  5046,  5075,  5104
  5133,  5162,  5191,  5220,  5249,  5278,  5307,  5336,  5365,  5394,  5423,  5452,  5481,  5510,  5539,  5568
  5597,  5626,  5655,  5684,  5713,  5742,  5771,  5800,  5829,  5858,  5887,  5916,  5945,  5974,  6003,  6032
  6061,  6090,  6119,  6148,  6177,  6206,  6235,  6264,  6293,  6322,  6351,  6380,  6409,  6438,  6467,  6496
  6525,  6554,  6583,  6612,  6641,  6670,  6699,  6728,  6757,  6786,  6815,  6844,  6873,  6902,  6931,  6960
  6989,  7018,  7047,  7076,  7105,  7134,  7163,  7192,  7221,  7250,  7279,  7308,  7337,  7366,  7395,  7424
  7453,  7482,  7511,  7540,  7569,  7598,  7627,  7656,  7685,  7714,  7743,  7772,  7801,  7830,  7859,  7888
  7917,  7946,  7975,  8004,  8033,  8062,  8091,  8120,  8149,  8178,  8207,  8236,  8265,  8294,  8323,  8352
  8381,  8410,  8439,  8468,  8497,  8526,  8555,  8584,  8613,  8642,  8671,  8700,  8729,  8758,  8787,  8816
  8845,  8874,  8903,  8932,  8961,  8990,  9019,  9048,  9077,  9106,  9135,  9164,  9193,  9222,  9251,  9280
** ... 6 like lines cut
*Nset, nset=ROCK_OUTPUT, instance=ROCK_INST, generate
     1,  12300,      1
*Elset, elset=ROCK_OUTPUT, instance=ROCK_INST, generate
     1,  11861,      1
*Nset, nset=YSYM_BASE, instance=FLUID_INST
   3,   4, 138, 139, 140
*Nset, nset=YSYM_BASE, instance=PIPE_INST
   3,   4, 138, 139, 140
*Nset, nset=YSYM_BASE, instance=ROCK_INST
   3,   4, 163, 164, 165, 166, 167, 168, 169, 170, 171, 172, 173, 174, 175, 176
 177, 178, 179, 180, 181, 182, 183, 184, 185, 186, 187, 188, 189, 190
*Elset, elset=YSYM_BASE, instance=FLUID_INST, generate
 513,  516,    1
*Elset, elset=YSYM_BASE, instance=PIPE_INST, generate
 513,  516,    1
*Elset, elset=YSYM_BASE, instance=ROCK_INST, generate
 3713,  3741,     1
*Nset, nset=YSYM_TOP, instance=FLUID_INST
   5,   6, 548, 549, 550
*Nset, nset=YSYM_TOP, instance=PIPE_INST
   5,   6, 548, 549, 550
*Nset, nset=YSYM_TOP, instance=ROCK_INST
   5,   6, 598, 599, 600, 601, 602, 603, 604, 605, 606, 607, 608, 609, 610, 611
 612, 613, 614, 615, 616, 617, 618, 619, 620, 621, 622, 623, 624, 625
*Elset, elset=YSYM_TOP, instance=FLUID_INST, generate
 1633,  1636,     1
*Elset, elset=YSYM_TOP, instance=PIPE_INST, generate
 1633,  1636,     1
*Elset, elset=YSYM_TOP, instance=ROCK_INST, generate
 11833,  11861,      1
*Elset, elset=_FASEI_ANNULAR_S2, internal, instance=FLUID_INST, generate
    4,  1636,     4
*Elset, elset=_FASEI_ANNULAR_S3, internal, instance=FLUID_INST
  513,  514,  515,  516, 1633, 1634, 1635, 1636
*Elset, elset=_FASEI_ANNULAR_S4, internal, instance=FLUID_INST, generate
    1,  1633,     4
*Surface, type=ELEMENT, name=FASEI_ANNULAR
_FASEI_ANNULAR_S2, S2
_FASEI_ANNULAR_S3, S3
_FASEI_ANNULAR_S4, S4
*Elset, elset=_FASEI_COMPLETED_WELL_S2, internal, instance=PIPE_INST, generate
   4,  516,    4
*Elset, elset=_FASEI_COMPLETED_WELL_S4, internal, instance=PIPE_INST, generate
  517,  1633,     4
*Surface, type=ELEMENT, name=FASEI_COMPLETED_WELL
_FASEI_COMPLETED_WELL_S2, S2
_FASEI_COMPLETED_WELL_S4, S4
*Elset, elset=_FASEI_FLUIDO_S4, internal, instance=PIPE_INST, generate
   1,  513,    4
*Elset, elset=_FASEI_FLUIDO_S4, internal, instance=ROCK_INST, generate
  3742,  11833,     29
*Elset, elset=_FASEI_FLUIDO_S2, internal, instance=PIPE_INST, generate
  520,  1636,     4
*Elset, elset=_FASEI_FLUIDO_S2, internal, instance=ROCK_INST, generate
   29,  3741,    29
*Surface, type=ELEMENT, name=FASEI_FLUIDO
_FASEI_FLUIDO_S4, S4
_FASEI_FLUIDO_S2, S2
*Elset, elset=_FASEI_MASTER_S4, internal, instance=PIPE_INST, generate
   1,  513,    4
*Elset, elset=_FASEI_MASTER_S2, internal, instance=PIPE_INST, generate
  520,  1636,     4
*Surface, type=ELEMENT, name=FASEI_MASTER
_FASEI_MASTER_S4, S4
_FASEI_MASTER_S2, S2
*Elset, elset=_FASEI_OPEN_WELL_S2, internal, instance=ROCK_INST, generate
   29,  3741,    29
*Elset, elset=_FASEI_OPEN_WELL_S4, internal, instance=ROCK_INST, generate
  3742,  11833,     29
*Surface, type=ELEMENT, name=FASEI_OPEN_WELL
_FASEI_OPEN_WELL_S2, S2
_FASEI_OPEN_WELL_S4, S4
*Elset, elset=_FASEI_REV_S2, internal, instance=PIPE_INST, generate
    4,  1636,     4
*Elset, elset=_FASEI_REV_S3, internal, instance=PIPE_INST
  513,  514,  515,  516, 1633, 1634, 1635, 1636
*Elset, elset=_FASEI_REV_S4, internal, instance=PIPE_INST, generate
    1,  1633,     4
*Surface, type=ELEMENT, name=FASEI_REV
_FASEI_REV_S2, S2
_FASEI_REV_S3, S3
_FASEI_REV_S4, S4
*Elset, elset=_FASEI_WELL_S2, internal, instance=ROCK_INST, generate
   29,  3741,    29
*Elset, elset=_FASEI_WELL_S4, internal, instance=ROCK_INST, generate
  3742,  11833,     29
*Surface, type=ELEMENT, name=FASEI_WELL
_FASEI_WELL_S2, S2
_FASEI_WELL_S4, S4
*Surface, type=NODE, name=ROCK_INST_FASEI_SLAVE_CNS_, internal
ROCK_INST.FASEI_SLAVE, 1.
*End Assembly
** 
** MATERIALS
** 
*Material, name=FLUID
*Conductivity
 0.702,
*Density
1.,
*Elastic
10000.,0.
*Specific Heat
2060.,
*Material, name=LAYER_01_SANDSTONE
*Conductivity
 1.869,
*Density
 2299.92,
*Elastic
 2.4062e+10, 0.25
*Expansion
 1e-05,
*Specific Heat
 0.209946,
*Mohr Coulomb
30., 7.5
*Mohr Coulomb Hardening
 2.00017e+07,0.
*Material, name=LAYER_02_HALITE
*Conductivity
 5.55,
*Creep, law=DOUBLE POWER
 0.0077864,    6042.9,      2.94, 0.0076093,    6042.9,      8.15,  1.03e+07
*Density
 2169.93,
*Elastic
 2.04e+10, 0.36
*Expansion
 1e-05,
*Specific Heat
 0.209946,
*Material, name=STEEL
*Conductivity
 45.3452,
*Density
7935.,
*Elastic
 2.06843e+11, 0.3
*Expansion
 0.0001242,
*Specific Heat
 460.9,
** 
** INTERACTION PROPERTIES
** 
*Surface Interaction, name=C_FASEI
1.,
*Friction, slip tolerance=0.005
 0.5,
*Surface Behavior, pressure-overclosure=HARD
*Time Points, name=timePoint
1., 3600., 7200., 14400., 28800., 57600., 86400., 172800.
345600., 691200., 1.3824e+06, 2.7648e+06, 5.5296e+06, 1.10592e+07, 2.21184e+07, 3.1536e+07
6.3072e+07, 1.26144e+08, 2.52288e+08, 5.04576e+08, 9.4608e+08
** 
** PHYSICAL CONSTANTS
** 
*Physical Constants, absolute zero=0., stefan boltzmann=5.67037e-08
** 
** BOUNDARY CONDITIONS
** 
** Name: FIX_FASEI_WELL Type: Symmetry/Antisymmetry/Encastre
*Boundary
FASEI_OPEN_WELL, XSYMM
** Name: PIN_FASEI Type: Symmetry/Antisymmetry/Encastre
*Boundary
PIPE_INST.FASEI_REV, PINNED
** Name: XSYM_ROCK_BC Type: Symmetry/Antisymmetry/Encastre
*Boundary
ROCK_BC, XSYMM
** Name: YSYM_BASE Type: Symmetry/Antisymmetry/Encastre
*Boundary
YSYM_BASE, YSYMM
** Name: YSYM_TOP Type: Symmetry/Antisymmetry/Encastre
*Boundary
YSYM_TOP, YSYMM
** 
** PREDEFINED FIELDS
** 
** Name: NT_FASEI   Type: Temperature Using Field: Geotermico
*Initial Conditions, type=TEMPERATURE
FLUID_INST.1, 311.253
FLUID_INST.2, 311.253
FLUID_INST.3, 321.857
FLUID_INST.4, 321.857
FLUID_INST.5, 287.86
FLUID_INST.6, 287.86
FLUID_INST.7, 311.253
FLUID_INST.8, 311.253
FLUID_INST.9, 311.253
FLUID_INST.10, 311.253
FLUID_INST.11, 311.306
FLUID_INST.12, 311.306
FLUID_INST.13, 311.359
FLUID_INST.14, 311.359
FLUID_INST.15, 311.413
FLUID_INST.16, 311.413
FLUID_INST.17, 311.466
FLUID_INST.18, 311.466
FLUID_INST.19, 311.519
FLUID_INST.20, 311.519
** ... 2030 like lines cut
PIPE_INST.1, 311.253
PIPE_INST.2, 311.253
PIPE_INST.3, 321.857
PIPE_INST.4, 321.857
PIPE_INST.5, 287.86
PIPE_INST.6, 287.86
PIPE_INST.7, 311.253
PIPE_INST.8, 311.253
PIPE_INST.9, 311.253
PIPE_INST.10, 311.253
PIPE_INST.11, 311.306
PIPE_INST.12, 311.306
PIPE_INST.13, 311.359
PIPE_INST.14, 311.359
PIPE_INST.15, 311.413
PIPE_INST.16, 311.413
PIPE_INST.17, 311.466
PIPE_INST.18, 311.466
PIPE_INST.19, 311.519
PIPE_INST.20, 311.519
** ... 2030 like lines cut
** Name: NT_FASEI_ID   Type: Temperature Using Field: Geotermico
*Initial Conditions, type=TEMPERATURE
PIPE_INST.2, 311.253
PIPE_INST.3, 321.857
PIPE_INST.6, 287.86
PIPE_INST.10, 311.253
PIPE_INST.11, 311.306
PIPE_INST.12, 311.306
PIPE_INST.13, 311.359
PIPE_INST.14, 311.359
PIPE_INST.15, 311.413
PIPE_INST.16, 311.413
PIPE_INST.17, 311.466
PIPE_INST.18, 311.466
PIPE_INST.19, 311.519
PIPE_INST.20, 311.519
PIPE_INST.21, 311.573
PIPE_INST.22, 311.626
PIPE_INST.23, 311.626
PIPE_INST.24, 311.679
PIPE_INST.25, 311.679
PIPE_INST.26, 311.732
** ... 390 like lines cut
** Name: NT_L1-I   Type: Temperature Using Field: NT_L1-I
*Initial Conditions, type=TEMPERATURE
ROCK_INST.1, 311.261
ROCK_INST.2, 311.261
ROCK_INST.5, 287.814
ROCK_INST.6, 287.814
ROCK_INST.7, 311.261
ROCK_INST.8, 311.261
ROCK_INST.9, 311.261
ROCK_INST.10, 311.261
ROCK_INST.11, 311.261
ROCK_INST.12, 311.261
ROCK_INST.13, 311.261
ROCK_INST.14, 311.261
ROCK_INST.15, 311.261
ROCK_INST.16, 311.261
ROCK_INST.17, 311.261
ROCK_INST.18, 311.261
ROCK_INST.19, 311.261
ROCK_INST.20, 311.261
ROCK_INST.21, 311.261
ROCK_INST.22, 311.261
** ... 8410 like lines cut
** Name: NT_L1-I_OD   Type: Temperature Using Field: NT_L1-I
*Initial Conditions, type=TEMPERATURE
ROCK_INST.1, 311.261
ROCK_INST.5, 287.814
ROCK_INST.319, 311.239
ROCK_INST.320, 311.218
ROCK_INST.321, 311.196
ROCK_INST.322, 311.173
ROCK_INST.323, 311.15
ROCK_INST.324, 311.127
ROCK_INST.325, 311.104
ROCK_INST.326, 311.08
ROCK_INST.327, 311.055
ROCK_INST.328, 311.031
ROCK_INST.329, 311.005
ROCK_INST.330, 310.98
ROCK_INST.331, 310.954
ROCK_INST.332, 310.927
ROCK_INST.333, 310.901
ROCK_INST.334, 310.873
ROCK_INST.335, 310.845
ROCK_INST.336, 310.817
** ... 261 like lines cut
** Name: NT_L2-I   Type: Temperature Using Field: NT_L2-I
*Initial Conditions, type=TEMPERATURE
ROCK_INST.1, 311.206
ROCK_INST.2, 311.206
ROCK_INST.3, 321.861
ROCK_INST.4, 321.861
ROCK_INST.7, 311.206
ROCK_INST.8, 311.206
ROCK_INST.9, 311.206
ROCK_INST.10, 311.206
ROCK_INST.11, 311.206
ROCK_INST.12, 311.206
ROCK_INST.13, 311.206
ROCK_INST.14, 311.206
ROCK_INST.15, 311.206
ROCK_INST.16, 311.206
ROCK_INST.17, 311.206
ROCK_INST.18, 311.206
ROCK_INST.19, 311.206
ROCK_INST.20, 311.206
ROCK_INST.21, 311.206
ROCK_INST.22, 311.206
** ... 3880 like lines cut
** Name: NT_L2-I_OD   Type: Temperature Using Field: NT_L2-I
*Initial Conditions, type=TEMPERATURE
ROCK_INST.1, 311.206
ROCK_INST.4, 321.861
ROCK_INST.191, 321.84
ROCK_INST.192, 321.818
ROCK_INST.193, 321.795
ROCK_INST.194, 321.771
ROCK_INST.195, 321.747
ROCK_INST.196, 321.721
ROCK_INST.197, 321.695
ROCK_INST.198, 321.667
ROCK_INST.199, 321.639
ROCK_INST.200, 321.609
ROCK_INST.201, 321.579
ROCK_INST.202, 321.547
ROCK_INST.203, 321.514
ROCK_INST.204, 321.48
ROCK_INST.205, 321.445
ROCK_INST.206, 321.409
ROCK_INST.207, 321.371
ROCK_INST.208, 321.332
** ... 110 like lines cut
** Name: S_FASEI_REV   Type: Geostatic stress
*Initial Conditions, type=STRESS, GEOSTATIC
PIPE_INST.FASEI_REV, 1.62564e+08, -2500., 3.80162e+07, -4100., 0., 0.
** Name: S_L1-I   Type: Geostatic stress
*Initial Conditions, type=STRESS, GEOSTATIC
ROCK_INST.L1-I, -3.1263e+07, -2500., -5.60815e+07, -3600., 1., 1.
** Name: S_L2-I   Type: Geostatic stress
*Initial Conditions, type=STRESS, GEOSTATIC
ROCK_INST.L2-I, -5.60815e+07, -3600., -6.6725e+07, -4100., 1., 1.
** 
** INTERACTIONS
** 
** Interaction: C_FASEI
*Contact Pair, interaction=C_FASEI, type=SURFACE TO SURFACE
ROCK_INST_FASEI_SLAVE_CNS_, FASEI_MASTER
** ----------------------------------------------------------------
** 
** STEP: Geostatic
** 
*Step, name=Geostatic, nlgeom=YES
*Geostatic
** 
** LOADS
** 
** Name: GRAVITY   Type: Gravity
*Dload, op=NEW
, GRAV, 9.81, , -1.
** 
** INTERACTIONS
** 
** Interaction: C_FASEI
*Model Change, type=CONTACT PAIR, remove
ROCK_INST_FASEI_SLAVE_CNS_, FASEI_MASTER
** Interaction: MC_FASEI_FLUIDO
*Model Change, remove
FLUID_INST.FASEI_FLUIDO, 
** Interaction: MC_FASEI_REV
*Model Change, remove
PIPE_INST.FASEI_REV, 
** 
** OUTPUT REQUESTS
** 
*Restart, write, frequency=0
** 
** FIELD OUTPUT: FASEI_REV
** 
*Output, field
*Node Output, nset=PIPE_INST.FASEI_REV
NT, U
*Element Output, elset=PIPE_INST.FASEI_REV, directions=YES
E, MISES, PE, S, PEEQ
** 
** FIELD OUTPUT: ROCK_OUTPUT
** 
*Node Output, nset=ROCK_OUTPUT
U, 
*Element Output, elset=ROCK_OUTPUT, directions=YES
TEMP, 
*Output, history, frequency=0
*End Step
** ----------------------------------------------------------------
** 
** STEP: Transition
** 
*Step, name=Transition, nlgeom=YES
*Static
1., 2., 2e-05, 2.
** 
** LOADS
** 
** Name: GRAVITY   Type: Gravity
*Dload, op=NEW
, GRAV, 9.81, , -1.
** 
** OUTPUT REQUESTS
** 
*Restart, write, frequency=0
** 
** FIELD OUTPUT: FASEI_REV
** 
*Output, field, time points=timePoint
*Node Output, nset=PIPE_INST.FASEI_REV
NT, U
*Element Output, elset=PIPE_INST.FASEI_REV, directions=YES
E, MISES, PE, S, PEEQ
** 
** FIELD OUTPUT: ROCK_OUTPUT
** 
*Node Output, nset=ROCK_OUTPUT
U, 
*Element Output, elset=ROCK_OUTPUT, directions=YES
TEMP, 
*Output, history, frequency=0
*End Step
** ----------------------------------------------------------------
** 
** STEP: TempDefine
** 
*Step, name=TempDefine, nlgeom=YES
*Static
1., 3., 3e-05, 3.
** 
** LOADS
** 
** Name: GRAVITY   Type: Gravity
*Dload, op=NEW
, GRAV, 9.81, , -1.
** 
** OUTPUT REQUESTS
** 
*Restart, write, frequency=0
** 
** FIELD OUTPUT: FASEI_REV
** 
*Output, field, time points=timePoint
*Node Output, nset=PIPE_INST.FASEI_REV
NT, U
*Element Output, elset=PIPE_INST.FASEI_REV, directions=YES
E, MISES, PE, S, PEEQ
** 
** FIELD OUTPUT: ROCK_OUTPUT
** 
*Node Output, nset=ROCK_OUTPUT
U, 
*Element Output, elset=ROCK_OUTPUT, directions=YES
TEMP, 
*Output, history, frequency=0
*End Step
** ----------------------------------------------------------------
** 
** STEP: Perf_10_375
** 
*Step, name=Perf_10_375, nlgeom=YES
*Static
1., 1., 1e-05, 1.
** 
** BOUNDARY CONDITIONS
** 
** Name: FIX_FASEI_WELL Type: Symmetry/Antisymmetry/Encastre
*Boundary, op=NEW
** Name: PIN_FASEI Type: Symmetry/Antisymmetry/Encastre
*Boundary, op=NEW
PIPE_INST.FASEI_REV, PINNED
** Name: XSYM_ROCK_BC Type: Symmetry/Antisymmetry/Encastre
*Boundary, op=NEW
ROCK_BC, XSYMM
** Name: YSYM_BASE Type: Symmetry/Antisymmetry/Encastre
*Boundary, op=NEW
YSYM_BASE, YSYMM
** Name: YSYM_TOP Type: Symmetry/Antisymmetry/Encastre
*Boundary, op=NEW
YSYM_TOP, YSYMM
** 
** LOADS
** 
** Name: GRAVITY   Type: Gravity
*Dload, op=NEW
, GRAV, 9.81, , -1.
** Name: P_FASEI_OPEN_WELL   Type: Pressure Using Field: P_FASEI_OPEN_WELL
*Dload, op=NEW
ROCK_INST.29, P2, 3.59751e+07
ROCK_INST.58, P2, 3.59853e+07
ROCK_INST.87, P2, 3.59958e+07
ROCK_INST.116, P2, 3.60067e+07
ROCK_INST.145, P2, 3.60181e+07
ROCK_INST.174, P2, 3.60298e+07
ROCK_INST.203, P2, 3.6042e+07
ROCK_INST.232, P2, 3.60546e+07
ROCK_INST.261, P2, 3.60677e+07
ROCK_INST.290, P2, 3.60813e+07
ROCK_INST.319, P2, 3.60953e+07
ROCK_INST.348, P2, 3.61099e+07
ROCK_INST.377, P2, 3.6125e+07
ROCK_INST.406, P2, 3.61406e+07
ROCK_INST.435, P2, 3.61569e+07
ROCK_INST.464, P2, 3.61737e+07
ROCK_INST.493, P2, 3.61911e+07
ROCK_INST.522, P2, 3.62092e+07
ROCK_INST.551, P2, 3.62279e+07
ROCK_INST.580, P2, 3.62474e+07
** ... 389 like lines cut
** 
** OUTPUT REQUESTS
** 
*Restart, write, frequency=0
** 
** FIELD OUTPUT: FASEI_REV
** 
*Output, field, time points=timePoint
*Node Output, nset=PIPE_INST.FASEI_REV
NT, U
*Element Output, elset=PIPE_INST.FASEI_REV, directions=YES
E, MISES, PE, S, PEEQ
** 
** FIELD OUTPUT: ROCK_OUTPUT
** 
*Node Output, nset=ROCK_OUTPUT
U, 
*Element Output, elset=ROCK_OUTPUT, directions=YES
TEMP, 
*Output, history, frequency=0
*End Step
** ----------------------------------------------------------------
** 
** STEP: Perf_10_375_Creep
** 
*Step, name=Perf_10_375_Creep, nlgeom=YES, inc=1000000
*Visco, cetol=0.0001
1e-06, 172800., 1e-15, 172800.
** 
** LOADS
** 
** Name: GRAVITY   Type: Gravity
*Dload, op=NEW
, GRAV, 9.81, , -1.
** Name: P_FASEI_OPEN_WELL   Type: Pressure Using Field: P_FASEI_OPEN_WELL
*Dload, op=NEW
ROCK_INST.29, P2, 3.59751e+07
ROCK_INST.58, P2, 3.59853e+07
ROCK_INST.87, P2, 3.59958e+07
ROCK_INST.116, P2, 3.60067e+07
ROCK_INST.145, P2, 3.60181e+07
ROCK_INST.174, P2, 3.60298e+07
ROCK_INST.203, P2, 3.6042e+07
ROCK_INST.232, P2, 3.60546e+07
ROCK_INST.261, P2, 3.60677e+07
ROCK_INST.290, P2, 3.60813e+07
ROCK_INST.319, P2, 3.60953e+07
ROCK_INST.348, P2, 3.61099e+07
ROCK_INST.377, P2, 3.6125e+07
ROCK_INST.406, P2, 3.61406e+07
ROCK_INST.435, P2, 3.61569e+07
ROCK_INST.464, P2, 3.61737e+07
ROCK_INST.493, P2, 3.61911e+07
ROCK_INST.522, P2, 3.62092e+07
ROCK_INST.551, P2, 3.62279e+07
ROCK_INST.580, P2, 3.62474e+07
** ... 389 like lines cut
** 
** OUTPUT REQUESTS
** 
*Restart, write, frequency=0
** 
** FIELD OUTPUT: FASEI_REV
** 
*Output, field, time points=timePoint
*Node Output, nset=PIPE_INST.FASEI_REV
NT, U
*Element Output, elset=PIPE_INST.FASEI_REV, directions=YES
E, MISES, PE, S, PEEQ
** 
** FIELD OUTPUT: ROCK_OUTPUT
** 
*Node Output, nset=ROCK_OUTPUT
U, 
*Element Output, elset=ROCK_OUTPUT, directions=YES
TEMP, 
*Output, history, frequency=0
*End Step
** ----------------------------------------------------------------
** 
** STEP: Rev_9_875
** 
*Step, name=Rev_9_875, nlgeom=YES
*Static
1., 1., 1e-15, 1.
** 
** BOUNDARY CONDITIONS
** 
** Name: PIN_FASEI Type: Symmetry/Antisymmetry/Encastre
*Boundary, op=NEW
** Name: XSYM_ROCK_BC Type: Symmetry/Antisymmetry/Encastre
*Boundary, op=NEW
ROCK_BC, XSYMM
** Name: YSYM_BASE Type: Symmetry/Antisymmetry/Encastre
*Boundary, op=NEW
YSYM_BASE, YSYMM
** Name: YSYM_TOP Type: Symmetry/Antisymmetry/Encastre
*Boundary, op=NEW
YSYM_TOP, YSYMM
** 
** LOADS
** 
** Name: GRAVITY   Type: Gravity
*Dload, op=NEW
, GRAV, 9.81, , -1.
** Name: P_FASEI_COMPLETED_WELL   Type: Pressure Using Field: P_FASEI_COMPLETED_WELL
*Dload, op=NEW
PIPE_INST.4, P2, 3.59751e+07
PIPE_INST.8, P2, 3.59853e+07
PIPE_INST.12, P2, 3.59958e+07
PIPE_INST.16, P2, 3.60067e+07
PIPE_INST.20, P2, 3.60181e+07
PIPE_INST.24, P2, 3.60298e+07
PIPE_INST.28, P2, 3.6042e+07
PIPE_INST.32, P2, 3.60546e+07
PIPE_INST.36, P2, 3.60677e+07
PIPE_INST.40, P2, 3.60813e+07
PIPE_INST.44, P2, 3.60953e+07
PIPE_INST.48, P2, 3.61099e+07
PIPE_INST.52, P2, 3.6125e+07
PIPE_INST.56, P2, 3.61406e+07
PIPE_INST.60, P2, 3.61569e+07
PIPE_INST.64, P2, 3.61737e+07
PIPE_INST.68, P2, 3.61911e+07
PIPE_INST.72, P2, 3.62092e+07
PIPE_INST.76, P2, 3.62279e+07
PIPE_INST.80, P2, 3.62474e+07
** ... 389 like lines cut
** Name: P_FASEI_FLUID   Type: Pressure Using Field: P_FASEI_FLUID
*Dload, op=NEW
PIPE_INST.1, P4, 3.59751e+07
PIPE_INST.5, P4, 3.59853e+07
PIPE_INST.9, P4, 3.59958e+07
PIPE_INST.13, P4, 3.60067e+07
PIPE_INST.17, P4, 3.60181e+07
PIPE_INST.21, P4, 3.60298e+07
PIPE_INST.25, P4, 3.6042e+07
PIPE_INST.29, P4, 3.60546e+07
PIPE_INST.33, P4, 3.60677e+07
PIPE_INST.37, P4, 3.60813e+07
PIPE_INST.41, P4, 3.60953e+07
PIPE_INST.45, P4, 3.61099e+07
PIPE_INST.49, P4, 3.6125e+07
PIPE_INST.53, P4, 3.61406e+07
PIPE_INST.57, P4, 3.61569e+07
PIPE_INST.61, P4, 3.61737e+07
PIPE_INST.65, P4, 3.61911e+07
PIPE_INST.69, P4, 3.62092e+07
PIPE_INST.73, P4, 3.62279e+07
PIPE_INST.77, P4, 3.62474e+07
** ... 389 like lines cut
ROCK_INST.29, P2, 3.59751e+07
ROCK_INST.58, P2, 3.59853e+07
ROCK_INST.87, P2, 3.59958e+07
ROCK_INST.116, P2, 3.60067e+07
ROCK_INST.145, P2, 3.60181e+07
ROCK_INST.174, P2, 3.60298e+07
ROCK_INST.203, P2, 3.6042e+07
ROCK_INST.232, P2, 3.60546e+07
ROCK_INST.261, P2, 3.60677e+07
ROCK_INST.290, P2, 3.60813e+07
ROCK_INST.319, P2, 3.60953e+07
ROCK_INST.348, P2, 3.61099e+07
ROCK_INST.377, P2, 3.6125e+07
ROCK_INST.406, P2, 3.61406e+07
ROCK_INST.435, P2, 3.61569e+07
ROCK_INST.464, P2, 3.61737e+07
ROCK_INST.493, P2, 3.61911e+07
ROCK_INST.522, P2, 3.62092e+07
ROCK_INST.551, P2, 3.62279e+07
ROCK_INST.580, P2, 3.62474e+07
** ... 389 like lines cut
** Name: P_FASEI_OPEN_WELL   Type: Pressure Using Field: P_FASEI_OPEN_WELL
*Dload, op=NEW
** 
** INTERACTIONS
** 
** Interaction: C_FASEI
*Model Change, type=CONTACT PAIR, add
ROCK_INST_FASEI_SLAVE_CNS_, FASEI_MASTER
** Interaction: MC_FASEI_REV
*Model Change, add
PIPE_INST.FASEI_REV, 
** 
** OUTPUT REQUESTS
** 
*Restart, write, frequency=0
** 
** FIELD OUTPUT: FASEI_REV
** 
*Output, field, time points=timePoint
*Node Output, nset=PIPE_INST.FASEI_REV
NT, U
*Element Output, elset=PIPE_INST.FASEI_REV, directions=YES
E, MISES, PE, S, PEEQ
** 
** FIELD OUTPUT: ROCK_OUTPUT
** 
*Node Output, nset=ROCK_OUTPUT
U, 
*Element Output, elset=ROCK_OUTPUT, directions=YES
TEMP, 
*Output, history, frequency=0
*End Step
** ----------------------------------------------------------------
** 
** STEP: Rev_9_875_Creep
** 
*Step, name=Rev_9_875_Creep, nlgeom=YES, inc=1000000
*Visco, cetol=0.0001
1e-06, 9.4608e+08, 1e-15, 1.5552e+07
** 
** LOADS
** 
** Name: GRAVITY   Type: Gravity
*Dload, op=NEW
, GRAV, 9.81, , -1.
** Name: P_FASEI_COMPLETED_WELL   Type: Pressure Using Field: P_FASEI_COMPLETED_WELL
*Dload, op=NEW
PIPE_INST.4, P2, 3.59751e+07
PIPE_INST.8, P2, 3.59853e+07
PIPE_INST.12, P2, 3.59958e+07
PIPE_INST.16, P2, 3.60067e+07
PIPE_INST.20, P2, 3.60181e+07
PIPE_INST.24, P2, 3.60298e+07
PIPE_INST.28, P2, 3.6042e+07
PIPE_INST.32, P2, 3.60546e+07
PIPE_INST.36, P2, 3.60677e+07
PIPE_INST.40, P2, 3.60813e+07
PIPE_INST.44, P2, 3.60953e+07
PIPE_INST.48, P2, 3.61099e+07
PIPE_INST.52, P2, 3.6125e+07
PIPE_INST.56, P2, 3.61406e+07
PIPE_INST.60, P2, 3.61569e+07
PIPE_INST.64, P2, 3.61737e+07
PIPE_INST.68, P2, 3.61911e+07
PIPE_INST.72, P2, 3.62092e+07
PIPE_INST.76, P2, 3.62279e+07
PIPE_INST.80, P2, 3.62474e+07
** ... 389 like lines cut
** Name: P_FASEI_FLUID   Type: Pressure Using Field: P_FASEI_FLUID
*Dload, op=NEW
PIPE_INST.1, P4, 3.59751e+07
PIPE_INST.5, P4, 3.59853e+07
PIPE_INST.9, P4, 3.59958e+07
PIPE_INST.13, P4, 3.60067e+07
PIPE_INST.17, P4, 3.60181e+07
PIPE_INST.21, P4, 3.60298e+07
PIPE_INST.25, P4, 3.6042e+07
PIPE_INST.29, P4, 3.60546e+07
PIPE_INST.33, P4, 3.60677e+07
PIPE_INST.37, P4, 3.60813e+07
PIPE_INST.41, P4, 3.60953e+07
PIPE_INST.45, P4, 3.61099e+07
PIPE_INST.49, P4, 3.6125e+07
PIPE_INST.53, P4, 3.61406e+07
PIPE_INST.57, P4, 3.61569e+07
PIPE_INST.61, P4, 3.61737e+07
PIPE_INST.65, P4, 3.61911e+07
PIPE_INST.69, P4, 3.62092e+07
PIPE_INST.73, P4, 3.62279e+07
PIPE_INST.77, P4, 3.62474e+07
** ... 389 like lines cut
ROCK_INST.29, P2, 3.59751e+07
ROCK_INST.58, P2, 3.59853e+07
ROCK_INST.87, P2, 3.59958e+07
ROCK_INST.116, P2, 3.60067e+07
ROCK_INST.145, P2, 3.60181e+07
ROCK_INST.174, P2, 3.60298e+07
ROCK_INST.203, P2, 3.6042e+07
ROCK_INST.232, P2, 3.60546e+07
ROCK_INST.261, P2, 3.60677e+07
ROCK_INST.290, P2, 3.60813e+07
ROCK_INST.319, P2, 3.60953e+07
ROCK_INST.348, P2, 3.61099e+07
ROCK_INST.377, P2, 3.6125e+07
ROCK_INST.406, P2, 3.61406e+07
ROCK_INST.435, P2, 3.61569e+07
ROCK_INST.464, P2, 3.61737e+07
ROCK_INST.493, P2, 3.61911e+07
ROCK_INST.522, P2, 3.62092e+07
ROCK_INST.551, P2, 3.62279e+07
ROCK_INST.580, P2, 3.62474e+07
** ... 389 like lines cut
** 
** OUTPUT REQUESTS
** 
*Restart, write, frequency=0
** 
** FIELD OUTPUT: FASEI_REV
** 
*Output, field, time points=timePoint
*Node Output, nset=PIPE_INST.FASEI_REV
NT, U
*Element Output, elset=PIPE_INST.FASEI_REV, directions=YES
E, MISES, PE, S, PEEQ
** 
** FIELD OUTPUT: ROCK_OUTPUT
** 
*Node Output, nset=ROCK_OUTPUT
U, 
*Element Output, elset=ROCK_OUTPUT, directions=YES
TEMP, 
*Output, history, frequency=0
*End Step
